file 56190799 1745937373                                        
version 3
run General-0-20250429-22:36:00-7281
attr configname General
attr datetime 20250429-22:36:00
attr datetimef 20250429-223600
attr experiment General
attr inifile RailwayLoRaStar.ini
attr iterationvars ""
attr iterationvarsd ""
attr iterationvarsf ""
attr measurement ""
attr network flora.simulations.RailwayLoRaStar
attr processid 7281
attr repetition 0
attr replication #0
attr resultdir results
attr runnumber 0
attr seedset 0
config image-path ../../inet4.4/images
config network flora.simulations.RailwayLoRaStar
config sim-time-limit 5000s
config simtime-resolution -11
config **.maxTransmissionDuration 10s
config output-vector-file results/railway-lora-0.vec
config output-scalar-file results/railway-lora-0.sca
config **.vector-recording true
config record-eventlog true
config rng-class cMersenneTwister
config **.loRaGW[0].packetForwarder.destPort 1000
config **.loRaGW[0].packetForwarder.localPort 2000
config **.loRaGW[0].packetForwarder.destAddresses "\"networkServer\""
config **.loRaGW[1].packetForwarder.destPort 1000
config **.loRaGW[1].packetForwarder.localPort 2001
config **.loRaGW[1].packetForwarder.destAddresses "\"networkServer\""
config **.networkServer.numApps 1
config **.networkServer.app[0].typename NetworkServerApp
config **.networkServer.app[0].localPort 1000
config **.networkServer.app[0].adrMethod "\"avg\""
config **.loRaNodes[*].numApps 1
config **.loRaNodes[*].app[0].typename SimpleLoRaApp
config **.loRaNodes[*].**initialLoRaSF 12
config **.loRaNodes[*].**initialLoRaTP 14dBm
config **.loRaNodes[*].**.evaluateADRinNode true
config **.loRaNodes[*].LoRaNic.radio.energyConsumer.typename LoRaEnergyConsumer
config **.loRaNodes[*].**.energySourceModule "\"^.IdealEpEnergyStorage\""
config **.loRaNodes[*].LoRaNic.radio.energyConsumer.configFile "xmldoc(\"energyConsumptionParameters.xml\")"
config **.loRaNodes[*].**.initFromDisplayString false
config **.loRaGW[*].**.initFromDisplayString false
config **.loRaGW[0].mobility.initialX 100m
config **.loRaGW[0].mobility.initialY 400m
config **.loRaGW[1].mobility.initialX 2000m
config **.loRaGW[1].mobility.initialY 400m
config **.loRaNodes[0].**.initialX 100m
config **.loRaNodes[0].**.initialY 650m
config **.loRaNodes[1].**.initialX 200m
config **.loRaNodes[1].**.initialY 550m
config **.loRaNodes[2].**.initialX 300m
config **.loRaNodes[2].**.initialY 650m
config **.loRaNodes[3].**.initialX 400m
config **.loRaNodes[3].**.initialY 550m
config **.loRaNodes[4].**.initialX 500m
config **.loRaNodes[4].**.initialY 650m
config **.loRaNodes[5].**.initialX 600m
config **.loRaNodes[5].**.initialY 550m
config **.loRaNodes[6].**.initialX 700m
config **.loRaNodes[6].**.initialY 650m
config **.loRaNodes[7].**.initialX 800m
config **.loRaNodes[7].**.initialY 550m
config **.loRaNodes[8].**.initialX 900m
config **.loRaNodes[8].**.initialY 650m
config **.loRaNodes[9].**.initialX 1000m
config **.loRaNodes[9].**.initialY 550m
config **.loRaNodes[10].**.initialX 1100m
config **.loRaNodes[10].**.initialY 650m
config **.loRaNodes[11].**.initialX 1200m
config **.loRaNodes[11].**.initialY 550m
config **.loRaNodes[12].**.initialX 1300m
config **.loRaNodes[12].**.initialY 650m
config **.loRaNodes[13].**.initialX 1400m
config **.loRaNodes[13].**.initialY 550m
config **.loRaNodes[14].**.initialX 1500m
config **.loRaNodes[14].**.initialY 650m
config **.loRaNodes[15].**.initialX 1600m
config **.loRaNodes[15].**.initialY 550m
config **.loRaNodes[16].**.initialX 1700m
config **.loRaNodes[16].**.initialY 650m
config **.loRaNodes[17].**.initialX 1800m
config **.loRaNodes[17].**.initialY 550m
config **.loRaNodes[18].**.initialX 1900m
config **.loRaNodes[18].**.initialY 650m
config **.loRaNodes[19].**.initialX 2000m
config **.loRaNodes[19].**.initialY 550m
config **.timeToFirstPacket "uniform(1s, 10s)"
config **.timeToNextPacket exponential(60s)
config **.radio.radioMediumModule "\"LoRaMedium\""
config **.minInterferenceTime 0s
config **.ipv4Delayer.config "xmldoc(\"cloudDelays.xml\")"
config **.constraintAreaMinX 0m
config **.constraintAreaMaxX 2500m
config **.constraintAreaMinY -50m
config **.constraintAreaMaxY 900m
config cmdenv-express-mode false

vector 0 RailwayLoRaStar.loRaGW[0].udp passedUpPk:vector(count) ETV
attr interpolationmode none
attr recordingmode vector(count)
attr source packetSentToUpper
attr title "packets passed up, count"
vector 1 RailwayLoRaStar.loRaGW[0].udp droppedPkWrongPort:vector(count) ETV
attr interpolationmode none
attr recordingmode vector(count)
attr source packetDropReasonIsNoPortFound(packetDropped)
attr title "packets dropped (wrong port), count"
vector 2 RailwayLoRaStar.loRaGW[0].udp droppedPkBadChecksum:vector(count) ETV
attr interpolationmode none
attr recordingmode vector(count)
attr source packetDropReasonIsIncorrectlyReceived(packetDropped)
attr title "packets dropped (checksum error), count"
vector 3 RailwayLoRaStar.loRaGW[1].udp passedUpPk:vector(count) ETV
attr interpolationmode none
attr recordingmode vector(count)
attr source packetSentToUpper
attr title "packets passed up, count"
vector 4 RailwayLoRaStar.loRaGW[1].udp droppedPkWrongPort:vector(count) ETV
attr interpolationmode none
attr recordingmode vector(count)
attr source packetDropReasonIsNoPortFound(packetDropped)
attr title "packets dropped (wrong port), count"
vector 5 RailwayLoRaStar.loRaGW[1].udp droppedPkBadChecksum:vector(count) ETV
attr interpolationmode none
attr recordingmode vector(count)
attr source packetDropReasonIsIncorrectlyReceived(packetDropped)
attr title "packets dropped (checksum error), count"
vector 6 RailwayLoRaStar.networkServer.udp passedUpPk:vector(count) ETV
attr interpolationmode none
attr recordingmode vector(count)
attr source packetSentToUpper
attr title "packets passed up, count"
vector 7 RailwayLoRaStar.networkServer.udp droppedPkWrongPort:vector(count) ETV
attr interpolationmode none
attr recordingmode vector(count)
attr source packetDropReasonIsNoPortFound(packetDropped)
attr title "packets dropped (wrong port), count"
vector 8 RailwayLoRaStar.networkServer.udp droppedPkBadChecksum:vector(count) ETV
attr interpolationmode none
attr recordingmode vector(count)
attr source packetDropReasonIsIncorrectlyReceived(packetDropped)
attr title "packets dropped (checksum error), count"
vector 9 RailwayLoRaStar.internetCloud.ppp[0].ppp transmissionState:vector ETV
attr interpolationmode sample-hold
attr recordingmode vector
attr source transmissionStateChanged
attr title "tx state"
vector 10 RailwayLoRaStar.internetCloud.ppp[1].ppp transmissionState:vector ETV
attr interpolationmode sample-hold
attr recordingmode vector
attr source transmissionStateChanged
attr title "tx state"
vector 11 RailwayLoRaStar.internetCloud.ppp[2].ppp transmissionState:vector ETV
attr interpolationmode sample-hold
attr recordingmode vector
attr source transmissionStateChanged
attr title "tx state"
vector 12 RailwayLoRaStar.gwRouter0.ppp[0].ppp transmissionState:vector ETV
attr interpolationmode sample-hold
attr recordingmode vector
attr source transmissionStateChanged
attr title "tx state"
vector 13 RailwayLoRaStar.gwRouter1.ppp[0].ppp transmissionState:vector ETV
attr interpolationmode sample-hold
attr recordingmode vector
attr source transmissionStateChanged
attr title "tx state"
vector 14 RailwayLoRaStar.nsRouter.ppp[0].ppp transmissionState:vector ETV
attr interpolationmode sample-hold
attr recordingmode vector
attr source transmissionStateChanged
attr title "tx state"
vector 15 RailwayLoRaStar.loRaNodes[0].LoRaNic.radio.IdealEpEnergyStorage powerConsumption:vector ETV
attr interpolationmode sample-hold
attr recordingmode vector
attr source powerConsumptionChanged
attr title "Power consumption"
vector 16 RailwayLoRaStar.loRaNodes[1].LoRaNic.radio.IdealEpEnergyStorage powerConsumption:vector ETV
attr interpolationmode sample-hold
attr recordingmode vector
attr source powerConsumptionChanged
attr title "Power consumption"
vector 17 RailwayLoRaStar.loRaNodes[2].LoRaNic.radio.IdealEpEnergyStorage powerConsumption:vector ETV
attr interpolationmode sample-hold
attr recordingmode vector
attr source powerConsumptionChanged
attr title "Power consumption"
vector 18 RailwayLoRaStar.loRaNodes[3].LoRaNic.radio.IdealEpEnergyStorage powerConsumption:vector ETV
attr interpolationmode sample-hold
attr recordingmode vector
attr source powerConsumptionChanged
attr title "Power consumption"
vector 19 RailwayLoRaStar.loRaNodes[4].LoRaNic.radio.IdealEpEnergyStorage powerConsumption:vector ETV
attr interpolationmode sample-hold
attr recordingmode vector
attr source powerConsumptionChanged
attr title "Power consumption"
vector 20 RailwayLoRaStar.loRaNodes[5].LoRaNic.radio.IdealEpEnergyStorage powerConsumption:vector ETV
attr interpolationmode sample-hold
attr recordingmode vector
attr source powerConsumptionChanged
attr title "Power consumption"
vector 21 RailwayLoRaStar.loRaNodes[6].LoRaNic.radio.IdealEpEnergyStorage powerConsumption:vector ETV
attr interpolationmode sample-hold
attr recordingmode vector
attr source powerConsumptionChanged
attr title "Power consumption"
vector 22 RailwayLoRaStar.loRaNodes[7].LoRaNic.radio.IdealEpEnergyStorage powerConsumption:vector ETV
attr interpolationmode sample-hold
attr recordingmode vector
attr source powerConsumptionChanged
attr title "Power consumption"
vector 23 RailwayLoRaStar.loRaNodes[8].LoRaNic.radio.IdealEpEnergyStorage powerConsumption:vector ETV
attr interpolationmode sample-hold
attr recordingmode vector
attr source powerConsumptionChanged
attr title "Power consumption"
vector 24 RailwayLoRaStar.loRaNodes[9].LoRaNic.radio.IdealEpEnergyStorage powerConsumption:vector ETV
attr interpolationmode sample-hold
attr recordingmode vector
attr source powerConsumptionChanged
attr title "Power consumption"
vector 25 RailwayLoRaStar.loRaNodes[10].LoRaNic.radio.IdealEpEnergyStorage powerConsumption:vector ETV
attr interpolationmode sample-hold
attr recordingmode vector
attr source powerConsumptionChanged
attr title "Power consumption"
vector 26 RailwayLoRaStar.loRaNodes[11].LoRaNic.radio.IdealEpEnergyStorage powerConsumption:vector ETV
attr interpolationmode sample-hold
attr recordingmode vector
attr source powerConsumptionChanged
attr title "Power consumption"
vector 27 RailwayLoRaStar.loRaNodes[12].LoRaNic.radio.IdealEpEnergyStorage powerConsumption:vector ETV
attr interpolationmode sample-hold
attr recordingmode vector
attr source powerConsumptionChanged
attr title "Power consumption"
vector 28 RailwayLoRaStar.loRaNodes[13].LoRaNic.radio.IdealEpEnergyStorage powerConsumption:vector ETV
attr interpolationmode sample-hold
attr recordingmode vector
attr source powerConsumptionChanged
attr title "Power consumption"
vector 29 RailwayLoRaStar.loRaNodes[14].LoRaNic.radio.IdealEpEnergyStorage powerConsumption:vector ETV
attr interpolationmode sample-hold
attr recordingmode vector
attr source powerConsumptionChanged
attr title "Power consumption"
vector 30 RailwayLoRaStar.loRaNodes[15].LoRaNic.radio.IdealEpEnergyStorage powerConsumption:vector ETV
attr interpolationmode sample-hold
attr recordingmode vector
attr source powerConsumptionChanged
attr title "Power consumption"
vector 31 RailwayLoRaStar.loRaNodes[16].LoRaNic.radio.IdealEpEnergyStorage powerConsumption:vector ETV
attr interpolationmode sample-hold
attr recordingmode vector
attr source powerConsumptionChanged
attr title "Power consumption"
vector 32 RailwayLoRaStar.loRaNodes[17].LoRaNic.radio.IdealEpEnergyStorage powerConsumption:vector ETV
attr interpolationmode sample-hold
attr recordingmode vector
attr source powerConsumptionChanged
attr title "Power consumption"
vector 33 RailwayLoRaStar.loRaNodes[18].LoRaNic.radio.IdealEpEnergyStorage powerConsumption:vector ETV
attr interpolationmode sample-hold
attr recordingmode vector
attr source powerConsumptionChanged
attr title "Power consumption"
vector 34 RailwayLoRaStar.loRaNodes[19].LoRaNic.radio.IdealEpEnergyStorage powerConsumption:vector ETV
attr interpolationmode sample-hold
attr recordingmode vector
attr source powerConsumptionChanged
attr title "Power consumption"
vector 35 RailwayLoRaStar.loRaNodes[0].LoRaNic.radio radioMode:vector ETV
attr interpolationmode sample-hold
attr recordingmode vector
attr source radioModeChanged
attr title "Radio mode"
vector 36 RailwayLoRaStar.loRaNodes[0].LoRaNic.radio.energyConsumer powerConsumption:vector ETV
attr interpolationmode sample-hold
attr recordingmode vector
attr source powerConsumptionChanged
attr title "Power consumption"
vector 37 RailwayLoRaStar.loRaNodes[1].LoRaNic.radio radioMode:vector ETV
attr interpolationmode sample-hold
attr recordingmode vector
attr source radioModeChanged
attr title "Radio mode"
vector 38 RailwayLoRaStar.loRaNodes[1].LoRaNic.radio.energyConsumer powerConsumption:vector ETV
attr interpolationmode sample-hold
attr recordingmode vector
attr source powerConsumptionChanged
attr title "Power consumption"
vector 39 RailwayLoRaStar.loRaNodes[2].LoRaNic.radio radioMode:vector ETV
attr interpolationmode sample-hold
attr recordingmode vector
attr source radioModeChanged
attr title "Radio mode"
vector 40 RailwayLoRaStar.loRaNodes[2].LoRaNic.radio.energyConsumer powerConsumption:vector ETV
attr interpolationmode sample-hold
attr recordingmode vector
attr source powerConsumptionChanged
attr title "Power consumption"
vector 41 RailwayLoRaStar.loRaNodes[3].LoRaNic.radio radioMode:vector ETV
attr interpolationmode sample-hold
attr recordingmode vector
attr source radioModeChanged
attr title "Radio mode"
vector 42 RailwayLoRaStar.loRaNodes[3].LoRaNic.radio.energyConsumer powerConsumption:vector ETV
attr interpolationmode sample-hold
attr recordingmode vector
attr source powerConsumptionChanged
attr title "Power consumption"
vector 43 RailwayLoRaStar.loRaNodes[4].LoRaNic.radio radioMode:vector ETV
attr interpolationmode sample-hold
attr recordingmode vector
attr source radioModeChanged
attr title "Radio mode"
vector 44 RailwayLoRaStar.loRaNodes[4].LoRaNic.radio.energyConsumer powerConsumption:vector ETV
attr interpolationmode sample-hold
attr recordingmode vector
attr source powerConsumptionChanged
attr title "Power consumption"
vector 45 RailwayLoRaStar.loRaNodes[5].LoRaNic.radio radioMode:vector ETV
attr interpolationmode sample-hold
attr recordingmode vector
attr source radioModeChanged
attr title "Radio mode"
vector 46 RailwayLoRaStar.loRaNodes[5].LoRaNic.radio.energyConsumer powerConsumption:vector ETV
attr interpolationmode sample-hold
attr recordingmode vector
attr source powerConsumptionChanged
attr title "Power consumption"
vector 47 RailwayLoRaStar.loRaNodes[6].LoRaNic.radio radioMode:vector ETV
attr interpolationmode sample-hold
attr recordingmode vector
attr source radioModeChanged
attr title "Radio mode"
vector 48 RailwayLoRaStar.loRaNodes[6].LoRaNic.radio.energyConsumer powerConsumption:vector ETV
attr interpolationmode sample-hold
attr recordingmode vector
attr source powerConsumptionChanged
attr title "Power consumption"
vector 49 RailwayLoRaStar.loRaNodes[7].LoRaNic.radio radioMode:vector ETV
attr interpolationmode sample-hold
attr recordingmode vector
attr source radioModeChanged
attr title "Radio mode"
vector 50 RailwayLoRaStar.loRaNodes[7].LoRaNic.radio.energyConsumer powerConsumption:vector ETV
attr interpolationmode sample-hold
attr recordingmode vector
attr source powerConsumptionChanged
attr title "Power consumption"
vector 51 RailwayLoRaStar.loRaNodes[8].LoRaNic.radio radioMode:vector ETV
attr interpolationmode sample-hold
attr recordingmode vector
attr source radioModeChanged
attr title "Radio mode"
vector 52 RailwayLoRaStar.loRaNodes[8].LoRaNic.radio.energyConsumer powerConsumption:vector ETV
attr interpolationmode sample-hold
attr recordingmode vector
attr source powerConsumptionChanged
attr title "Power consumption"
vector 53 RailwayLoRaStar.loRaNodes[9].LoRaNic.radio radioMode:vector ETV
attr interpolationmode sample-hold
attr recordingmode vector
attr source radioModeChanged
attr title "Radio mode"
vector 54 RailwayLoRaStar.loRaNodes[9].LoRaNic.radio.energyConsumer powerConsumption:vector ETV
attr interpolationmode sample-hold
attr recordingmode vector
attr source powerConsumptionChanged
attr title "Power consumption"
vector 55 RailwayLoRaStar.loRaNodes[10].LoRaNic.radio radioMode:vector ETV
attr interpolationmode sample-hold
attr recordingmode vector
attr source radioModeChanged
attr title "Radio mode"
vector 56 RailwayLoRaStar.loRaNodes[10].LoRaNic.radio.energyConsumer powerConsumption:vector ETV
attr interpolationmode sample-hold
attr recordingmode vector
attr source powerConsumptionChanged
attr title "Power consumption"
vector 57 RailwayLoRaStar.loRaNodes[11].LoRaNic.radio radioMode:vector ETV
attr interpolationmode sample-hold
attr recordingmode vector
attr source radioModeChanged
attr title "Radio mode"
vector 58 RailwayLoRaStar.loRaNodes[11].LoRaNic.radio.energyConsumer powerConsumption:vector ETV
attr interpolationmode sample-hold
attr recordingmode vector
attr source powerConsumptionChanged
attr title "Power consumption"
vector 59 RailwayLoRaStar.loRaNodes[12].LoRaNic.radio radioMode:vector ETV
attr interpolationmode sample-hold
attr recordingmode vector
attr source radioModeChanged
attr title "Radio mode"
vector 60 RailwayLoRaStar.loRaNodes[12].LoRaNic.radio.energyConsumer powerConsumption:vector ETV
attr interpolationmode sample-hold
attr recordingmode vector
attr source powerConsumptionChanged
attr title "Power consumption"
vector 61 RailwayLoRaStar.loRaNodes[13].LoRaNic.radio radioMode:vector ETV
attr interpolationmode sample-hold
attr recordingmode vector
attr source radioModeChanged
attr title "Radio mode"
vector 62 RailwayLoRaStar.loRaNodes[13].LoRaNic.radio.energyConsumer powerConsumption:vector ETV
attr interpolationmode sample-hold
attr recordingmode vector
attr source powerConsumptionChanged
attr title "Power consumption"
vector 63 RailwayLoRaStar.loRaNodes[14].LoRaNic.radio radioMode:vector ETV
attr interpolationmode sample-hold
attr recordingmode vector
attr source radioModeChanged
attr title "Radio mode"
vector 64 RailwayLoRaStar.loRaNodes[14].LoRaNic.radio.energyConsumer powerConsumption:vector ETV
attr interpolationmode sample-hold
attr recordingmode vector
attr source powerConsumptionChanged
attr title "Power consumption"
vector 65 RailwayLoRaStar.loRaNodes[15].LoRaNic.radio radioMode:vector ETV
attr interpolationmode sample-hold
attr recordingmode vector
attr source radioModeChanged
attr title "Radio mode"
vector 66 RailwayLoRaStar.loRaNodes[15].LoRaNic.radio.energyConsumer powerConsumption:vector ETV
attr interpolationmode sample-hold
attr recordingmode vector
attr source powerConsumptionChanged
attr title "Power consumption"
vector 67 RailwayLoRaStar.loRaNodes[16].LoRaNic.radio radioMode:vector ETV
attr interpolationmode sample-hold
attr recordingmode vector
attr source radioModeChanged
attr title "Radio mode"
vector 68 RailwayLoRaStar.loRaNodes[16].LoRaNic.radio.energyConsumer powerConsumption:vector ETV
attr interpolationmode sample-hold
attr recordingmode vector
attr source powerConsumptionChanged
attr title "Power consumption"
vector 69 RailwayLoRaStar.loRaNodes[17].LoRaNic.radio radioMode:vector ETV
attr interpolationmode sample-hold
attr recordingmode vector
attr source radioModeChanged
attr title "Radio mode"
vector 70 RailwayLoRaStar.loRaNodes[17].LoRaNic.radio.energyConsumer powerConsumption:vector ETV
attr interpolationmode sample-hold
attr recordingmode vector
attr source powerConsumptionChanged
attr title "Power consumption"
vector 71 RailwayLoRaStar.loRaNodes[18].LoRaNic.radio radioMode:vector ETV
attr interpolationmode sample-hold
attr recordingmode vector
attr source radioModeChanged
attr title "Radio mode"
vector 72 RailwayLoRaStar.loRaNodes[18].LoRaNic.radio.energyConsumer powerConsumption:vector ETV
attr interpolationmode sample-hold
attr recordingmode vector
attr source powerConsumptionChanged
attr title "Power consumption"
vector 73 RailwayLoRaStar.loRaNodes[19].LoRaNic.radio radioMode:vector ETV
attr interpolationmode sample-hold
attr recordingmode vector
attr source radioModeChanged
attr title "Radio mode"
vector 74 RailwayLoRaStar.loRaNodes[19].LoRaNic.radio.energyConsumer powerConsumption:vector ETV
attr interpolationmode sample-hold
attr recordingmode vector
attr source powerConsumptionChanged
attr title "Power consumption"
vector 75 RailwayLoRaStar.loRaGW[0].LoRaGWNic.radio radioMode:vector ETV
attr interpolationmode sample-hold
attr recordingmode vector
attr source radioModeChanged
attr title "Radio mode"
vector 76 RailwayLoRaStar.loRaGW[1].LoRaGWNic.radio radioMode:vector ETV
attr interpolationmode sample-hold
attr recordingmode vector
attr source radioModeChanged
attr title "Radio mode"
vector 77 RailwayLoRaStar.loRaGW[0].LoRaGWNic.radio receptionState:vector ETV
attr interpolationmode sample-hold
attr recordingmode vector
attr source receptionStateChanged
attr title "Radio reception state"
vector 78 RailwayLoRaStar.loRaGW[0].LoRaGWNic.radio transmissionState:vector ETV
attr interpolationmode sample-hold
attr recordingmode vector
attr source transmissionStateChanged
attr title "Radio transmission state"
vector 79 RailwayLoRaStar.loRaGW[1].LoRaGWNic.radio receptionState:vector ETV
attr interpolationmode sample-hold
attr recordingmode vector
attr source receptionStateChanged
attr title "Radio reception state"
vector 80 RailwayLoRaStar.loRaGW[1].LoRaGWNic.radio transmissionState:vector ETV
attr interpolationmode sample-hold
attr recordingmode vector
attr source transmissionStateChanged
attr title "Radio transmission state"
vector 81 RailwayLoRaStar.loRaNodes[15].app[0] "SF Vector" ETV
vector 82 RailwayLoRaStar.loRaNodes[15].app[0] "TP Vector" ETV
vector 83 RailwayLoRaStar.loRaNodes[15].LoRaNic.queue incomingPacketLengths:vector ETV
attr interpolationmode none
attr recordingmode vector
attr source packetLength(packetPushStarted)
attr title "incoming packet lengths"
attr unit b
vector 84 RailwayLoRaStar.loRaNodes[15].LoRaNic.queue incomingDataRate:vector ETV
attr interpolationmode linear
attr recordingmode vector
attr source throughput(packetPushStarted)
attr title "incoming datarate"
attr unit bps
vector 85 RailwayLoRaStar.loRaNodes[15].LoRaNic.queue queueingTime:vector ETV
attr interpolationmode none
attr recordingmode vector
attr source queueingTime(packetPulled)
attr title "queueing times"
attr unit s
vector 86 RailwayLoRaStar.loRaNodes[15].LoRaNic.queue outgoingPacketLengths:vector ETV
attr interpolationmode none
attr recordingmode vector
attr source packetLength(packetPulled)
attr title "outgoing packet lengths"
attr unit b
vector 87 RailwayLoRaStar.loRaNodes[15].LoRaNic.queue outgoingDataRate:vector ETV
attr interpolationmode linear
attr recordingmode vector
attr source throughput(packetPulled)
attr title "outgoing datarate"
attr unit bps
vector 88 RailwayLoRaStar.loRaNodes[15].LoRaNic.radio.IdealEpEnergyStorage residualEnergyCapacity:vector ETV
attr interpolationmode linear
attr recordingmode vector
attr source residualEnergyCapacityChanged
attr title "Residual energy capacity"
vector 89 RailwayLoRaStar.loRaNodes[15].LoRaNic.radio transmissionState:vector ETV
attr interpolationmode sample-hold
attr recordingmode vector
attr source transmissionStateChanged
attr title "Radio transmission state"
vector 90 RailwayLoRaStar.loRaNodes[15].LoRaNic.queue queueLength:vector ETV
attr autoWarmupFilter false
attr interpolationmode sample-hold
attr recordingmode vector
attr source "warmup(atomic(constant0(packetPushEnded) + count(packetPushStarted) - count(packetPulled) - count(packetRemoved) - count(packetDropped)))"
attr title "queue length"
attr unit pk
vector 91 RailwayLoRaStar.loRaNodes[15].LoRaNic.queue queueBitLength:vector ETV
attr autoWarmupFilter false
attr interpolationmode sample-hold
attr recordingmode vector
attr source "warmup(atomic(constant0(packetPushEnded) + sum(packetLength(packetPushStarted)) - sum(packetLength(packetPulled)) - sum(packetLength(packetRemoved)) - sum(packetLength(packetDropped))))"
attr title "queue bit length"
attr unit b
vector 92 RailwayLoRaStar.loRaNodes[12].app[0] "SF Vector" ETV
vector 93 RailwayLoRaStar.loRaNodes[12].app[0] "TP Vector" ETV
vector 94 RailwayLoRaStar.loRaNodes[12].LoRaNic.queue incomingPacketLengths:vector ETV
attr interpolationmode none
attr recordingmode vector
attr source packetLength(packetPushStarted)
attr title "incoming packet lengths"
attr unit b
vector 95 RailwayLoRaStar.loRaNodes[12].LoRaNic.queue incomingDataRate:vector ETV
attr interpolationmode linear
attr recordingmode vector
attr source throughput(packetPushStarted)
attr title "incoming datarate"
attr unit bps
vector 96 RailwayLoRaStar.loRaNodes[12].LoRaNic.queue queueingTime:vector ETV
attr interpolationmode none
attr recordingmode vector
attr source queueingTime(packetPulled)
attr title "queueing times"
attr unit s
vector 97 RailwayLoRaStar.loRaNodes[12].LoRaNic.queue outgoingPacketLengths:vector ETV
attr interpolationmode none
attr recordingmode vector
attr source packetLength(packetPulled)
attr title "outgoing packet lengths"
attr unit b
vector 98 RailwayLoRaStar.loRaNodes[12].LoRaNic.queue outgoingDataRate:vector ETV
attr interpolationmode linear
attr recordingmode vector
attr source throughput(packetPulled)
attr title "outgoing datarate"
attr unit bps
vector 99 RailwayLoRaStar.loRaNodes[12].LoRaNic.radio.IdealEpEnergyStorage residualEnergyCapacity:vector ETV
attr interpolationmode linear
attr recordingmode vector
attr source residualEnergyCapacityChanged
attr title "Residual energy capacity"
vector 100 RailwayLoRaStar.loRaNodes[12].LoRaNic.radio transmissionState:vector ETV
attr interpolationmode sample-hold
attr recordingmode vector
attr source transmissionStateChanged
attr title "Radio transmission state"
vector 101 RailwayLoRaStar.loRaNodes[12].LoRaNic.queue queueLength:vector ETV
attr autoWarmupFilter false
attr interpolationmode sample-hold
attr recordingmode vector
attr source "warmup(atomic(constant0(packetPushEnded) + count(packetPushStarted) - count(packetPulled) - count(packetRemoved) - count(packetDropped)))"
attr title "queue length"
attr unit pk
vector 102 RailwayLoRaStar.loRaNodes[12].LoRaNic.queue queueBitLength:vector ETV
attr autoWarmupFilter false
attr interpolationmode sample-hold
attr recordingmode vector
attr source "warmup(atomic(constant0(packetPushEnded) + sum(packetLength(packetPushStarted)) - sum(packetLength(packetPulled)) - sum(packetLength(packetRemoved)) - sum(packetLength(packetDropped))))"
attr title "queue bit length"
attr unit b
vector 103 RailwayLoRaStar.loRaNodes[1].app[0] "SF Vector" ETV
vector 104 RailwayLoRaStar.loRaNodes[1].app[0] "TP Vector" ETV
vector 105 RailwayLoRaStar.loRaNodes[1].LoRaNic.queue incomingPacketLengths:vector ETV
attr interpolationmode none
attr recordingmode vector
attr source packetLength(packetPushStarted)
attr title "incoming packet lengths"
attr unit b
vector 106 RailwayLoRaStar.loRaNodes[1].LoRaNic.queue incomingDataRate:vector ETV
attr interpolationmode linear
attr recordingmode vector
attr source throughput(packetPushStarted)
attr title "incoming datarate"
attr unit bps
vector 107 RailwayLoRaStar.loRaNodes[1].LoRaNic.queue queueingTime:vector ETV
attr interpolationmode none
attr recordingmode vector
attr source queueingTime(packetPulled)
attr title "queueing times"
attr unit s
vector 108 RailwayLoRaStar.loRaNodes[1].LoRaNic.queue outgoingPacketLengths:vector ETV
attr interpolationmode none
attr recordingmode vector
attr source packetLength(packetPulled)
attr title "outgoing packet lengths"
attr unit b
vector 109 RailwayLoRaStar.loRaNodes[1].LoRaNic.queue outgoingDataRate:vector ETV
attr interpolationmode linear
attr recordingmode vector
attr source throughput(packetPulled)
attr title "outgoing datarate"
attr unit bps
vector 110 RailwayLoRaStar.loRaNodes[1].LoRaNic.radio.IdealEpEnergyStorage residualEnergyCapacity:vector ETV
attr interpolationmode linear
attr recordingmode vector
attr source residualEnergyCapacityChanged
attr title "Residual energy capacity"
vector 111 RailwayLoRaStar.loRaNodes[1].LoRaNic.radio transmissionState:vector ETV
attr interpolationmode sample-hold
attr recordingmode vector
attr source transmissionStateChanged
attr title "Radio transmission state"
vector 112 RailwayLoRaStar.loRaNodes[1].LoRaNic.queue queueLength:vector ETV
attr autoWarmupFilter false
attr interpolationmode sample-hold
attr recordingmode vector
attr source "warmup(atomic(constant0(packetPushEnded) + count(packetPushStarted) - count(packetPulled) - count(packetRemoved) - count(packetDropped)))"
attr title "queue length"
attr unit pk
vector 113 RailwayLoRaStar.loRaNodes[1].LoRaNic.queue queueBitLength:vector ETV
attr autoWarmupFilter false
attr interpolationmode sample-hold
attr recordingmode vector
attr source "warmup(atomic(constant0(packetPushEnded) + sum(packetLength(packetPushStarted)) - sum(packetLength(packetPulled)) - sum(packetLength(packetRemoved)) - sum(packetLength(packetDropped))))"
attr title "queue bit length"
attr unit b
vector 114 RailwayLoRaStar.loRaNodes[16].app[0] "SF Vector" ETV
vector 115 RailwayLoRaStar.loRaNodes[16].app[0] "TP Vector" ETV
vector 116 RailwayLoRaStar.loRaNodes[16].LoRaNic.queue incomingPacketLengths:vector ETV
attr interpolationmode none
attr recordingmode vector
attr source packetLength(packetPushStarted)
attr title "incoming packet lengths"
attr unit b
vector 117 RailwayLoRaStar.loRaNodes[16].LoRaNic.queue incomingDataRate:vector ETV
attr interpolationmode linear
attr recordingmode vector
attr source throughput(packetPushStarted)
attr title "incoming datarate"
attr unit bps
vector 118 RailwayLoRaStar.loRaNodes[16].LoRaNic.queue queueingTime:vector ETV
attr interpolationmode none
attr recordingmode vector
attr source queueingTime(packetPulled)
attr title "queueing times"
attr unit s
vector 119 RailwayLoRaStar.loRaNodes[16].LoRaNic.queue outgoingPacketLengths:vector ETV
attr interpolationmode none
attr recordingmode vector
attr source packetLength(packetPulled)
attr title "outgoing packet lengths"
attr unit b
vector 120 RailwayLoRaStar.loRaNodes[16].LoRaNic.queue outgoingDataRate:vector ETV
attr interpolationmode linear
attr recordingmode vector
attr source throughput(packetPulled)
attr title "outgoing datarate"
attr unit bps
vector 121 RailwayLoRaStar.loRaNodes[16].LoRaNic.radio.IdealEpEnergyStorage residualEnergyCapacity:vector ETV
attr interpolationmode linear
attr recordingmode vector
attr source residualEnergyCapacityChanged
attr title "Residual energy capacity"
vector 122 RailwayLoRaStar.loRaNodes[16].LoRaNic.radio transmissionState:vector ETV
attr interpolationmode sample-hold
attr recordingmode vector
attr source transmissionStateChanged
attr title "Radio transmission state"
vector 123 RailwayLoRaStar.loRaNodes[16].LoRaNic.queue queueLength:vector ETV
attr autoWarmupFilter false
attr interpolationmode sample-hold
attr recordingmode vector
attr source "warmup(atomic(constant0(packetPushEnded) + count(packetPushStarted) - count(packetPulled) - count(packetRemoved) - count(packetDropped)))"
attr title "queue length"
attr unit pk
vector 124 RailwayLoRaStar.loRaNodes[16].LoRaNic.queue queueBitLength:vector ETV
attr autoWarmupFilter false
attr interpolationmode sample-hold
attr recordingmode vector
attr source "warmup(atomic(constant0(packetPushEnded) + sum(packetLength(packetPushStarted)) - sum(packetLength(packetPulled)) - sum(packetLength(packetRemoved)) - sum(packetLength(packetDropped))))"
attr title "queue bit length"
attr unit b
vector 125 RailwayLoRaStar.loRaNodes[0].app[0] "SF Vector" ETV
vector 126 RailwayLoRaStar.loRaNodes[0].app[0] "TP Vector" ETV
vector 127 RailwayLoRaStar.loRaNodes[0].LoRaNic.queue incomingPacketLengths:vector ETV
attr interpolationmode none
attr recordingmode vector
attr source packetLength(packetPushStarted)
attr title "incoming packet lengths"
attr unit b
vector 128 RailwayLoRaStar.loRaNodes[0].LoRaNic.queue incomingDataRate:vector ETV
attr interpolationmode linear
attr recordingmode vector
attr source throughput(packetPushStarted)
attr title "incoming datarate"
attr unit bps
vector 129 RailwayLoRaStar.loRaNodes[0].LoRaNic.queue queueingTime:vector ETV
attr interpolationmode none
attr recordingmode vector
attr source queueingTime(packetPulled)
attr title "queueing times"
attr unit s
vector 130 RailwayLoRaStar.loRaNodes[0].LoRaNic.queue outgoingPacketLengths:vector ETV
attr interpolationmode none
attr recordingmode vector
attr source packetLength(packetPulled)
attr title "outgoing packet lengths"
attr unit b
vector 131 RailwayLoRaStar.loRaNodes[0].LoRaNic.queue outgoingDataRate:vector ETV
attr interpolationmode linear
attr recordingmode vector
attr source throughput(packetPulled)
attr title "outgoing datarate"
attr unit bps
vector 132 RailwayLoRaStar.loRaNodes[0].LoRaNic.radio.IdealEpEnergyStorage residualEnergyCapacity:vector ETV
attr interpolationmode linear
attr recordingmode vector
attr source residualEnergyCapacityChanged
attr title "Residual energy capacity"
vector 133 RailwayLoRaStar.loRaNodes[0].LoRaNic.radio transmissionState:vector ETV
attr interpolationmode sample-hold
attr recordingmode vector
attr source transmissionStateChanged
attr title "Radio transmission state"
vector 134 RailwayLoRaStar.loRaNodes[0].LoRaNic.queue queueLength:vector ETV
attr autoWarmupFilter false
attr interpolationmode sample-hold
attr recordingmode vector
attr source "warmup(atomic(constant0(packetPushEnded) + count(packetPushStarted) - count(packetPulled) - count(packetRemoved) - count(packetDropped)))"
attr title "queue length"
attr unit pk
vector 135 RailwayLoRaStar.loRaNodes[0].LoRaNic.queue queueBitLength:vector ETV
attr autoWarmupFilter false
attr interpolationmode sample-hold
attr recordingmode vector
attr source "warmup(atomic(constant0(packetPushEnded) + sum(packetLength(packetPushStarted)) - sum(packetLength(packetPulled)) - sum(packetLength(packetRemoved)) - sum(packetLength(packetDropped))))"
attr title "queue bit length"
attr unit b
vector 136 RailwayLoRaStar.loRaNodes[2].app[0] "SF Vector" ETV
vector 137 RailwayLoRaStar.loRaNodes[2].app[0] "TP Vector" ETV
vector 138 RailwayLoRaStar.loRaNodes[2].LoRaNic.queue incomingPacketLengths:vector ETV
attr interpolationmode none
attr recordingmode vector
attr source packetLength(packetPushStarted)
attr title "incoming packet lengths"
attr unit b
vector 139 RailwayLoRaStar.loRaNodes[2].LoRaNic.queue incomingDataRate:vector ETV
attr interpolationmode linear
attr recordingmode vector
attr source throughput(packetPushStarted)
attr title "incoming datarate"
attr unit bps
vector 140 RailwayLoRaStar.loRaNodes[2].LoRaNic.queue queueingTime:vector ETV
attr interpolationmode none
attr recordingmode vector
attr source queueingTime(packetPulled)
attr title "queueing times"
attr unit s
vector 141 RailwayLoRaStar.loRaNodes[2].LoRaNic.queue outgoingPacketLengths:vector ETV
attr interpolationmode none
attr recordingmode vector
attr source packetLength(packetPulled)
attr title "outgoing packet lengths"
attr unit b
vector 142 RailwayLoRaStar.loRaNodes[2].LoRaNic.queue outgoingDataRate:vector ETV
attr interpolationmode linear
attr recordingmode vector
attr source throughput(packetPulled)
attr title "outgoing datarate"
attr unit bps
vector 143 RailwayLoRaStar.loRaNodes[2].LoRaNic.radio.IdealEpEnergyStorage residualEnergyCapacity:vector ETV
attr interpolationmode linear
attr recordingmode vector
attr source residualEnergyCapacityChanged
attr title "Residual energy capacity"
vector 144 RailwayLoRaStar.loRaNodes[2].LoRaNic.radio transmissionState:vector ETV
attr interpolationmode sample-hold
attr recordingmode vector
attr source transmissionStateChanged
attr title "Radio transmission state"
vector 145 RailwayLoRaStar.loRaNodes[2].LoRaNic.queue queueLength:vector ETV
attr autoWarmupFilter false
attr interpolationmode sample-hold
attr recordingmode vector
attr source "warmup(atomic(constant0(packetPushEnded) + count(packetPushStarted) - count(packetPulled) - count(packetRemoved) - count(packetDropped)))"
attr title "queue length"
attr unit pk
vector 146 RailwayLoRaStar.loRaNodes[2].LoRaNic.queue queueBitLength:vector ETV
attr autoWarmupFilter false
attr interpolationmode sample-hold
attr recordingmode vector
attr source "warmup(atomic(constant0(packetPushEnded) + sum(packetLength(packetPushStarted)) - sum(packetLength(packetPulled)) - sum(packetLength(packetRemoved)) - sum(packetLength(packetDropped))))"
attr title "queue bit length"
attr unit b
vector 147 RailwayLoRaStar.loRaNodes[5].app[0] "SF Vector" ETV
vector 148 RailwayLoRaStar.loRaNodes[5].app[0] "TP Vector" ETV
vector 149 RailwayLoRaStar.loRaNodes[5].LoRaNic.queue incomingPacketLengths:vector ETV
attr interpolationmode none
attr recordingmode vector
attr source packetLength(packetPushStarted)
attr title "incoming packet lengths"
attr unit b
vector 150 RailwayLoRaStar.loRaNodes[5].LoRaNic.queue incomingDataRate:vector ETV
attr interpolationmode linear
attr recordingmode vector
attr source throughput(packetPushStarted)
attr title "incoming datarate"
attr unit bps
vector 151 RailwayLoRaStar.loRaNodes[5].LoRaNic.queue queueingTime:vector ETV
attr interpolationmode none
attr recordingmode vector
attr source queueingTime(packetPulled)
attr title "queueing times"
attr unit s
vector 152 RailwayLoRaStar.loRaNodes[5].LoRaNic.queue outgoingPacketLengths:vector ETV
attr interpolationmode none
attr recordingmode vector
attr source packetLength(packetPulled)
attr title "outgoing packet lengths"
attr unit b
vector 153 RailwayLoRaStar.loRaNodes[5].LoRaNic.queue outgoingDataRate:vector ETV
attr interpolationmode linear
attr recordingmode vector
attr source throughput(packetPulled)
attr title "outgoing datarate"
attr unit bps
vector 154 RailwayLoRaStar.loRaNodes[5].LoRaNic.radio.IdealEpEnergyStorage residualEnergyCapacity:vector ETV
attr interpolationmode linear
attr recordingmode vector
attr source residualEnergyCapacityChanged
attr title "Residual energy capacity"
vector 155 RailwayLoRaStar.loRaNodes[5].LoRaNic.radio transmissionState:vector ETV
attr interpolationmode sample-hold
attr recordingmode vector
attr source transmissionStateChanged
attr title "Radio transmission state"
vector 156 RailwayLoRaStar.loRaNodes[5].LoRaNic.queue queueLength:vector ETV
attr autoWarmupFilter false
attr interpolationmode sample-hold
attr recordingmode vector
attr source "warmup(atomic(constant0(packetPushEnded) + count(packetPushStarted) - count(packetPulled) - count(packetRemoved) - count(packetDropped)))"
attr title "queue length"
attr unit pk
vector 157 RailwayLoRaStar.loRaNodes[5].LoRaNic.queue queueBitLength:vector ETV
attr autoWarmupFilter false
attr interpolationmode sample-hold
attr recordingmode vector
attr source "warmup(atomic(constant0(packetPushEnded) + sum(packetLength(packetPushStarted)) - sum(packetLength(packetPulled)) - sum(packetLength(packetRemoved)) - sum(packetLength(packetDropped))))"
attr title "queue bit length"
attr unit b
vector 158 RailwayLoRaStar.loRaNodes[18].app[0] "SF Vector" ETV
vector 159 RailwayLoRaStar.loRaNodes[18].app[0] "TP Vector" ETV
vector 160 RailwayLoRaStar.loRaNodes[18].LoRaNic.queue incomingPacketLengths:vector ETV
attr interpolationmode none
attr recordingmode vector
attr source packetLength(packetPushStarted)
attr title "incoming packet lengths"
attr unit b
vector 161 RailwayLoRaStar.loRaNodes[18].LoRaNic.queue incomingDataRate:vector ETV
attr interpolationmode linear
attr recordingmode vector
attr source throughput(packetPushStarted)
attr title "incoming datarate"
attr unit bps
vector 162 RailwayLoRaStar.loRaNodes[18].LoRaNic.queue queueingTime:vector ETV
attr interpolationmode none
attr recordingmode vector
attr source queueingTime(packetPulled)
attr title "queueing times"
attr unit s
vector 163 RailwayLoRaStar.loRaNodes[18].LoRaNic.queue outgoingPacketLengths:vector ETV
attr interpolationmode none
attr recordingmode vector
attr source packetLength(packetPulled)
attr title "outgoing packet lengths"
attr unit b
vector 164 RailwayLoRaStar.loRaNodes[18].LoRaNic.queue outgoingDataRate:vector ETV
attr interpolationmode linear
attr recordingmode vector
attr source throughput(packetPulled)
attr title "outgoing datarate"
attr unit bps
vector 165 RailwayLoRaStar.loRaNodes[18].LoRaNic.radio.IdealEpEnergyStorage residualEnergyCapacity:vector ETV
attr interpolationmode linear
attr recordingmode vector
attr source residualEnergyCapacityChanged
attr title "Residual energy capacity"
vector 166 RailwayLoRaStar.loRaNodes[18].LoRaNic.radio transmissionState:vector ETV
attr interpolationmode sample-hold
attr recordingmode vector
attr source transmissionStateChanged
attr title "Radio transmission state"
vector 167 RailwayLoRaStar.loRaNodes[18].LoRaNic.queue queueLength:vector ETV
attr autoWarmupFilter false
attr interpolationmode sample-hold
attr recordingmode vector
attr source "warmup(atomic(constant0(packetPushEnded) + count(packetPushStarted) - count(packetPulled) - count(packetRemoved) - count(packetDropped)))"
attr title "queue length"
attr unit pk
vector 168 RailwayLoRaStar.loRaNodes[18].LoRaNic.queue queueBitLength:vector ETV
attr autoWarmupFilter false
attr interpolationmode sample-hold
attr recordingmode vector
attr source "warmup(atomic(constant0(packetPushEnded) + sum(packetLength(packetPushStarted)) - sum(packetLength(packetPulled)) - sum(packetLength(packetRemoved)) - sum(packetLength(packetDropped))))"
attr title "queue bit length"
attr unit b
vector 169 RailwayLoRaStar.loRaNodes[19].app[0] "SF Vector" ETV
vector 170 RailwayLoRaStar.loRaNodes[19].app[0] "TP Vector" ETV
vector 171 RailwayLoRaStar.loRaNodes[19].LoRaNic.queue incomingPacketLengths:vector ETV
attr interpolationmode none
attr recordingmode vector
attr source packetLength(packetPushStarted)
attr title "incoming packet lengths"
attr unit b
vector 172 RailwayLoRaStar.loRaNodes[19].LoRaNic.queue incomingDataRate:vector ETV
attr interpolationmode linear
attr recordingmode vector
attr source throughput(packetPushStarted)
attr title "incoming datarate"
attr unit bps
vector 173 RailwayLoRaStar.loRaNodes[19].LoRaNic.queue queueingTime:vector ETV
attr interpolationmode none
attr recordingmode vector
attr source queueingTime(packetPulled)
attr title "queueing times"
attr unit s
vector 174 RailwayLoRaStar.loRaNodes[19].LoRaNic.queue outgoingPacketLengths:vector ETV
attr interpolationmode none
attr recordingmode vector
attr source packetLength(packetPulled)
attr title "outgoing packet lengths"
attr unit b
vector 175 RailwayLoRaStar.loRaNodes[19].LoRaNic.queue outgoingDataRate:vector ETV
attr interpolationmode linear
attr recordingmode vector
attr source throughput(packetPulled)
attr title "outgoing datarate"
attr unit bps
vector 176 RailwayLoRaStar.loRaNodes[19].LoRaNic.radio.IdealEpEnergyStorage residualEnergyCapacity:vector ETV
attr interpolationmode linear
attr recordingmode vector
attr source residualEnergyCapacityChanged
attr title "Residual energy capacity"
vector 177 RailwayLoRaStar.loRaNodes[19].LoRaNic.radio transmissionState:vector ETV
attr interpolationmode sample-hold
attr recordingmode vector
attr source transmissionStateChanged
attr title "Radio transmission state"
vector 178 RailwayLoRaStar.loRaNodes[19].LoRaNic.queue queueLength:vector ETV
attr autoWarmupFilter false
attr interpolationmode sample-hold
attr recordingmode vector
attr source "warmup(atomic(constant0(packetPushEnded) + count(packetPushStarted) - count(packetPulled) - count(packetRemoved) - count(packetDropped)))"
attr title "queue length"
attr unit pk
vector 179 RailwayLoRaStar.loRaNodes[19].LoRaNic.queue queueBitLength:vector ETV
attr autoWarmupFilter false
attr interpolationmode sample-hold
attr recordingmode vector
attr source "warmup(atomic(constant0(packetPushEnded) + sum(packetLength(packetPushStarted)) - sum(packetLength(packetPulled)) - sum(packetLength(packetRemoved)) - sum(packetLength(packetDropped))))"
attr title "queue bit length"
attr unit b
vector 180 RailwayLoRaStar.loRaNodes[15].LoRaNic.radio receptionState:vector ETV
attr interpolationmode sample-hold
attr recordingmode vector
attr source receptionStateChanged
attr title "Radio reception state"
vector 181 RailwayLoRaStar.loRaNodes[12].LoRaNic.radio receptionState:vector ETV
attr interpolationmode sample-hold
attr recordingmode vector
attr source receptionStateChanged
attr title "Radio reception state"
vector 182 RailwayLoRaStar.loRaNodes[8].app[0] "SF Vector" ETV
vector 183 RailwayLoRaStar.loRaNodes[8].app[0] "TP Vector" ETV
vector 184 RailwayLoRaStar.loRaNodes[8].LoRaNic.queue incomingPacketLengths:vector ETV
attr interpolationmode none
attr recordingmode vector
attr source packetLength(packetPushStarted)
attr title "incoming packet lengths"
attr unit b
vector 185 RailwayLoRaStar.loRaNodes[8].LoRaNic.queue incomingDataRate:vector ETV
attr interpolationmode linear
attr recordingmode vector
attr source throughput(packetPushStarted)
attr title "incoming datarate"
attr unit bps
vector 186 RailwayLoRaStar.loRaNodes[8].LoRaNic.queue queueingTime:vector ETV
attr interpolationmode none
attr recordingmode vector
attr source queueingTime(packetPulled)
attr title "queueing times"
attr unit s
vector 187 RailwayLoRaStar.loRaNodes[8].LoRaNic.queue outgoingPacketLengths:vector ETV
attr interpolationmode none
attr recordingmode vector
attr source packetLength(packetPulled)
attr title "outgoing packet lengths"
attr unit b
vector 188 RailwayLoRaStar.loRaNodes[8].LoRaNic.queue outgoingDataRate:vector ETV
attr interpolationmode linear
attr recordingmode vector
attr source throughput(packetPulled)
attr title "outgoing datarate"
attr unit bps
vector 189 RailwayLoRaStar.loRaNodes[8].LoRaNic.radio.IdealEpEnergyStorage residualEnergyCapacity:vector ETV
attr interpolationmode linear
attr recordingmode vector
attr source residualEnergyCapacityChanged
attr title "Residual energy capacity"
vector 190 RailwayLoRaStar.loRaNodes[8].LoRaNic.radio transmissionState:vector ETV
attr interpolationmode sample-hold
attr recordingmode vector
attr source transmissionStateChanged
attr title "Radio transmission state"
vector 191 RailwayLoRaStar.loRaNodes[8].LoRaNic.queue queueLength:vector ETV
attr autoWarmupFilter false
attr interpolationmode sample-hold
attr recordingmode vector
attr source "warmup(atomic(constant0(packetPushEnded) + count(packetPushStarted) - count(packetPulled) - count(packetRemoved) - count(packetDropped)))"
attr title "queue length"
attr unit pk
vector 192 RailwayLoRaStar.loRaNodes[8].LoRaNic.queue queueBitLength:vector ETV
attr autoWarmupFilter false
attr interpolationmode sample-hold
attr recordingmode vector
attr source "warmup(atomic(constant0(packetPushEnded) + sum(packetLength(packetPushStarted)) - sum(packetLength(packetPulled)) - sum(packetLength(packetRemoved)) - sum(packetLength(packetDropped))))"
attr title "queue bit length"
attr unit b
vector 193 RailwayLoRaStar.loRaNodes[17].app[0] "SF Vector" ETV
vector 194 RailwayLoRaStar.loRaNodes[17].app[0] "TP Vector" ETV
vector 195 RailwayLoRaStar.loRaNodes[17].LoRaNic.queue incomingPacketLengths:vector ETV
attr interpolationmode none
attr recordingmode vector
attr source packetLength(packetPushStarted)
attr title "incoming packet lengths"
attr unit b
vector 196 RailwayLoRaStar.loRaNodes[17].LoRaNic.queue incomingDataRate:vector ETV
attr interpolationmode linear
attr recordingmode vector
attr source throughput(packetPushStarted)
attr title "incoming datarate"
attr unit bps
vector 197 RailwayLoRaStar.loRaNodes[17].LoRaNic.queue queueingTime:vector ETV
attr interpolationmode none
attr recordingmode vector
attr source queueingTime(packetPulled)
attr title "queueing times"
attr unit s
vector 198 RailwayLoRaStar.loRaNodes[17].LoRaNic.queue outgoingPacketLengths:vector ETV
attr interpolationmode none
attr recordingmode vector
attr source packetLength(packetPulled)
attr title "outgoing packet lengths"
attr unit b
vector 199 RailwayLoRaStar.loRaNodes[17].LoRaNic.queue outgoingDataRate:vector ETV
attr interpolationmode linear
attr recordingmode vector
attr source throughput(packetPulled)
attr title "outgoing datarate"
attr unit bps
vector 200 RailwayLoRaStar.loRaNodes[17].LoRaNic.radio.IdealEpEnergyStorage residualEnergyCapacity:vector ETV
attr interpolationmode linear
attr recordingmode vector
attr source residualEnergyCapacityChanged
attr title "Residual energy capacity"
vector 201 RailwayLoRaStar.loRaNodes[17].LoRaNic.radio transmissionState:vector ETV
attr interpolationmode sample-hold
attr recordingmode vector
attr source transmissionStateChanged
attr title "Radio transmission state"
vector 202 RailwayLoRaStar.loRaNodes[17].LoRaNic.queue queueLength:vector ETV
attr autoWarmupFilter false
attr interpolationmode sample-hold
attr recordingmode vector
attr source "warmup(atomic(constant0(packetPushEnded) + count(packetPushStarted) - count(packetPulled) - count(packetRemoved) - count(packetDropped)))"
attr title "queue length"
attr unit pk
vector 203 RailwayLoRaStar.loRaNodes[17].LoRaNic.queue queueBitLength:vector ETV
attr autoWarmupFilter false
attr interpolationmode sample-hold
attr recordingmode vector
attr source "warmup(atomic(constant0(packetPushEnded) + sum(packetLength(packetPushStarted)) - sum(packetLength(packetPulled)) - sum(packetLength(packetRemoved)) - sum(packetLength(packetDropped))))"
attr title "queue bit length"
attr unit b
vector 204 RailwayLoRaStar.loRaNodes[1].LoRaNic.radio receptionState:vector ETV
attr interpolationmode sample-hold
attr recordingmode vector
attr source receptionStateChanged
attr title "Radio reception state"
vector 205 RailwayLoRaStar.loRaNodes[13].app[0] "SF Vector" ETV
vector 206 RailwayLoRaStar.loRaNodes[13].app[0] "TP Vector" ETV
vector 207 RailwayLoRaStar.loRaNodes[13].LoRaNic.queue incomingPacketLengths:vector ETV
attr interpolationmode none
attr recordingmode vector
attr source packetLength(packetPushStarted)
attr title "incoming packet lengths"
attr unit b
vector 208 RailwayLoRaStar.loRaNodes[13].LoRaNic.queue incomingDataRate:vector ETV
attr interpolationmode linear
attr recordingmode vector
attr source throughput(packetPushStarted)
attr title "incoming datarate"
attr unit bps
vector 209 RailwayLoRaStar.loRaNodes[13].LoRaNic.queue queueingTime:vector ETV
attr interpolationmode none
attr recordingmode vector
attr source queueingTime(packetPulled)
attr title "queueing times"
attr unit s
vector 210 RailwayLoRaStar.loRaNodes[13].LoRaNic.queue outgoingPacketLengths:vector ETV
attr interpolationmode none
attr recordingmode vector
attr source packetLength(packetPulled)
attr title "outgoing packet lengths"
attr unit b
vector 211 RailwayLoRaStar.loRaNodes[13].LoRaNic.queue outgoingDataRate:vector ETV
attr interpolationmode linear
attr recordingmode vector
attr source throughput(packetPulled)
attr title "outgoing datarate"
attr unit bps
vector 212 RailwayLoRaStar.loRaNodes[13].LoRaNic.radio.IdealEpEnergyStorage residualEnergyCapacity:vector ETV
attr interpolationmode linear
attr recordingmode vector
attr source residualEnergyCapacityChanged
attr title "Residual energy capacity"
vector 213 RailwayLoRaStar.loRaNodes[13].LoRaNic.radio transmissionState:vector ETV
attr interpolationmode sample-hold
attr recordingmode vector
attr source transmissionStateChanged
attr title "Radio transmission state"
vector 214 RailwayLoRaStar.loRaNodes[13].LoRaNic.queue queueLength:vector ETV
attr autoWarmupFilter false
attr interpolationmode sample-hold
attr recordingmode vector
attr source "warmup(atomic(constant0(packetPushEnded) + count(packetPushStarted) - count(packetPulled) - count(packetRemoved) - count(packetDropped)))"
attr title "queue length"
attr unit pk
vector 215 RailwayLoRaStar.loRaNodes[13].LoRaNic.queue queueBitLength:vector ETV
attr autoWarmupFilter false
attr interpolationmode sample-hold
attr recordingmode vector
attr source "warmup(atomic(constant0(packetPushEnded) + sum(packetLength(packetPushStarted)) - sum(packetLength(packetPulled)) - sum(packetLength(packetRemoved)) - sum(packetLength(packetDropped))))"
attr title "queue bit length"
attr unit b
vector 216 RailwayLoRaStar.loRaNodes[14].app[0] "SF Vector" ETV
vector 217 RailwayLoRaStar.loRaNodes[14].app[0] "TP Vector" ETV
vector 218 RailwayLoRaStar.loRaNodes[14].LoRaNic.queue incomingPacketLengths:vector ETV
attr interpolationmode none
attr recordingmode vector
attr source packetLength(packetPushStarted)
attr title "incoming packet lengths"
attr unit b
vector 219 RailwayLoRaStar.loRaNodes[14].LoRaNic.queue incomingDataRate:vector ETV
attr interpolationmode linear
attr recordingmode vector
attr source throughput(packetPushStarted)
attr title "incoming datarate"
attr unit bps
vector 220 RailwayLoRaStar.loRaNodes[14].LoRaNic.queue queueingTime:vector ETV
attr interpolationmode none
attr recordingmode vector
attr source queueingTime(packetPulled)
attr title "queueing times"
attr unit s
vector 221 RailwayLoRaStar.loRaNodes[14].LoRaNic.queue outgoingPacketLengths:vector ETV
attr interpolationmode none
attr recordingmode vector
attr source packetLength(packetPulled)
attr title "outgoing packet lengths"
attr unit b
vector 222 RailwayLoRaStar.loRaNodes[14].LoRaNic.queue outgoingDataRate:vector ETV
attr interpolationmode linear
attr recordingmode vector
attr source throughput(packetPulled)
attr title "outgoing datarate"
attr unit bps
vector 223 RailwayLoRaStar.loRaNodes[14].LoRaNic.radio.IdealEpEnergyStorage residualEnergyCapacity:vector ETV
attr interpolationmode linear
attr recordingmode vector
attr source residualEnergyCapacityChanged
attr title "Residual energy capacity"
vector 224 RailwayLoRaStar.loRaNodes[14].LoRaNic.radio transmissionState:vector ETV
attr interpolationmode sample-hold
attr recordingmode vector
attr source transmissionStateChanged
attr title "Radio transmission state"
vector 225 RailwayLoRaStar.loRaNodes[14].LoRaNic.queue queueLength:vector ETV
attr autoWarmupFilter false
attr interpolationmode sample-hold
attr recordingmode vector
attr source "warmup(atomic(constant0(packetPushEnded) + count(packetPushStarted) - count(packetPulled) - count(packetRemoved) - count(packetDropped)))"
attr title "queue length"
attr unit pk
vector 226 RailwayLoRaStar.loRaNodes[14].LoRaNic.queue queueBitLength:vector ETV
attr autoWarmupFilter false
attr interpolationmode sample-hold
attr recordingmode vector
attr source "warmup(atomic(constant0(packetPushEnded) + sum(packetLength(packetPushStarted)) - sum(packetLength(packetPulled)) - sum(packetLength(packetRemoved)) - sum(packetLength(packetDropped))))"
attr title "queue bit length"
attr unit b
vector 227 RailwayLoRaStar.loRaNodes[16].LoRaNic.radio receptionState:vector ETV
attr interpolationmode sample-hold
attr recordingmode vector
attr source receptionStateChanged
attr title "Radio reception state"
vector 228 RailwayLoRaStar.loRaNodes[0].LoRaNic.radio receptionState:vector ETV
attr interpolationmode sample-hold
attr recordingmode vector
attr source receptionStateChanged
attr title "Radio reception state"
vector 229 RailwayLoRaStar.loRaNodes[6].app[0] "SF Vector" ETV
vector 230 RailwayLoRaStar.loRaNodes[6].app[0] "TP Vector" ETV
vector 231 RailwayLoRaStar.loRaNodes[6].LoRaNic.queue incomingPacketLengths:vector ETV
attr interpolationmode none
attr recordingmode vector
attr source packetLength(packetPushStarted)
attr title "incoming packet lengths"
attr unit b
vector 232 RailwayLoRaStar.loRaNodes[6].LoRaNic.queue incomingDataRate:vector ETV
attr interpolationmode linear
attr recordingmode vector
attr source throughput(packetPushStarted)
attr title "incoming datarate"
attr unit bps
vector 233 RailwayLoRaStar.loRaNodes[6].LoRaNic.queue queueingTime:vector ETV
attr interpolationmode none
attr recordingmode vector
attr source queueingTime(packetPulled)
attr title "queueing times"
attr unit s
vector 234 RailwayLoRaStar.loRaNodes[6].LoRaNic.queue outgoingPacketLengths:vector ETV
attr interpolationmode none
attr recordingmode vector
attr source packetLength(packetPulled)
attr title "outgoing packet lengths"
attr unit b
vector 235 RailwayLoRaStar.loRaNodes[6].LoRaNic.queue outgoingDataRate:vector ETV
attr interpolationmode linear
attr recordingmode vector
attr source throughput(packetPulled)
attr title "outgoing datarate"
attr unit bps
vector 236 RailwayLoRaStar.loRaNodes[6].LoRaNic.radio.IdealEpEnergyStorage residualEnergyCapacity:vector ETV
attr interpolationmode linear
attr recordingmode vector
attr source residualEnergyCapacityChanged
attr title "Residual energy capacity"
vector 237 RailwayLoRaStar.loRaNodes[6].LoRaNic.radio transmissionState:vector ETV
attr interpolationmode sample-hold
attr recordingmode vector
attr source transmissionStateChanged
attr title "Radio transmission state"
vector 238 RailwayLoRaStar.loRaNodes[6].LoRaNic.queue queueLength:vector ETV
attr autoWarmupFilter false
attr interpolationmode sample-hold
attr recordingmode vector
attr source "warmup(atomic(constant0(packetPushEnded) + count(packetPushStarted) - count(packetPulled) - count(packetRemoved) - count(packetDropped)))"
attr title "queue length"
attr unit pk
vector 239 RailwayLoRaStar.loRaNodes[6].LoRaNic.queue queueBitLength:vector ETV
attr autoWarmupFilter false
attr interpolationmode sample-hold
attr recordingmode vector
attr source "warmup(atomic(constant0(packetPushEnded) + sum(packetLength(packetPushStarted)) - sum(packetLength(packetPulled)) - sum(packetLength(packetRemoved)) - sum(packetLength(packetDropped))))"
attr title "queue bit length"
attr unit b
vector 240 RailwayLoRaStar.loRaNodes[4].app[0] "SF Vector" ETV
vector 241 RailwayLoRaStar.loRaNodes[4].app[0] "TP Vector" ETV
vector 242 RailwayLoRaStar.loRaNodes[4].LoRaNic.queue incomingPacketLengths:vector ETV
attr interpolationmode none
attr recordingmode vector
attr source packetLength(packetPushStarted)
attr title "incoming packet lengths"
attr unit b
vector 243 RailwayLoRaStar.loRaNodes[4].LoRaNic.queue incomingDataRate:vector ETV
attr interpolationmode linear
attr recordingmode vector
attr source throughput(packetPushStarted)
attr title "incoming datarate"
attr unit bps
vector 244 RailwayLoRaStar.loRaNodes[4].LoRaNic.queue queueingTime:vector ETV
attr interpolationmode none
attr recordingmode vector
attr source queueingTime(packetPulled)
attr title "queueing times"
attr unit s
vector 245 RailwayLoRaStar.loRaNodes[4].LoRaNic.queue outgoingPacketLengths:vector ETV
attr interpolationmode none
attr recordingmode vector
attr source packetLength(packetPulled)
attr title "outgoing packet lengths"
attr unit b
vector 246 RailwayLoRaStar.loRaNodes[4].LoRaNic.queue outgoingDataRate:vector ETV
attr interpolationmode linear
attr recordingmode vector
attr source throughput(packetPulled)
attr title "outgoing datarate"
attr unit bps
vector 247 RailwayLoRaStar.loRaNodes[4].LoRaNic.radio.IdealEpEnergyStorage residualEnergyCapacity:vector ETV
attr interpolationmode linear
attr recordingmode vector
attr source residualEnergyCapacityChanged
attr title "Residual energy capacity"
vector 248 RailwayLoRaStar.loRaNodes[4].LoRaNic.radio transmissionState:vector ETV
attr interpolationmode sample-hold
attr recordingmode vector
attr source transmissionStateChanged
attr title "Radio transmission state"
vector 249 RailwayLoRaStar.loRaNodes[4].LoRaNic.queue queueLength:vector ETV
attr autoWarmupFilter false
attr interpolationmode sample-hold
attr recordingmode vector
attr source "warmup(atomic(constant0(packetPushEnded) + count(packetPushStarted) - count(packetPulled) - count(packetRemoved) - count(packetDropped)))"
attr title "queue length"
attr unit pk
vector 250 RailwayLoRaStar.loRaNodes[4].LoRaNic.queue queueBitLength:vector ETV
attr autoWarmupFilter false
attr interpolationmode sample-hold
attr recordingmode vector
attr source "warmup(atomic(constant0(packetPushEnded) + sum(packetLength(packetPushStarted)) - sum(packetLength(packetPulled)) - sum(packetLength(packetRemoved)) - sum(packetLength(packetDropped))))"
attr title "queue bit length"
attr unit b
vector 251 RailwayLoRaStar.loRaNodes[2].LoRaNic.radio receptionState:vector ETV
attr interpolationmode sample-hold
attr recordingmode vector
attr source receptionStateChanged
attr title "Radio reception state"
vector 252 RailwayLoRaStar.loRaNodes[9].app[0] "SF Vector" ETV
vector 253 RailwayLoRaStar.loRaNodes[9].app[0] "TP Vector" ETV
vector 254 RailwayLoRaStar.loRaNodes[9].LoRaNic.queue incomingPacketLengths:vector ETV
attr interpolationmode none
attr recordingmode vector
attr source packetLength(packetPushStarted)
attr title "incoming packet lengths"
attr unit b
vector 255 RailwayLoRaStar.loRaNodes[9].LoRaNic.queue incomingDataRate:vector ETV
attr interpolationmode linear
attr recordingmode vector
attr source throughput(packetPushStarted)
attr title "incoming datarate"
attr unit bps
vector 256 RailwayLoRaStar.loRaNodes[9].LoRaNic.queue queueingTime:vector ETV
attr interpolationmode none
attr recordingmode vector
attr source queueingTime(packetPulled)
attr title "queueing times"
attr unit s
vector 257 RailwayLoRaStar.loRaNodes[9].LoRaNic.queue outgoingPacketLengths:vector ETV
attr interpolationmode none
attr recordingmode vector
attr source packetLength(packetPulled)
attr title "outgoing packet lengths"
attr unit b
vector 258 RailwayLoRaStar.loRaNodes[9].LoRaNic.queue outgoingDataRate:vector ETV
attr interpolationmode linear
attr recordingmode vector
attr source throughput(packetPulled)
attr title "outgoing datarate"
attr unit bps
vector 259 RailwayLoRaStar.loRaNodes[9].LoRaNic.radio.IdealEpEnergyStorage residualEnergyCapacity:vector ETV
attr interpolationmode linear
attr recordingmode vector
attr source residualEnergyCapacityChanged
attr title "Residual energy capacity"
vector 260 RailwayLoRaStar.loRaNodes[9].LoRaNic.radio transmissionState:vector ETV
attr interpolationmode sample-hold
attr recordingmode vector
attr source transmissionStateChanged
attr title "Radio transmission state"
vector 261 RailwayLoRaStar.loRaNodes[9].LoRaNic.queue queueLength:vector ETV
attr autoWarmupFilter false
attr interpolationmode sample-hold
attr recordingmode vector
attr source "warmup(atomic(constant0(packetPushEnded) + count(packetPushStarted) - count(packetPulled) - count(packetRemoved) - count(packetDropped)))"
attr title "queue length"
attr unit pk
vector 262 RailwayLoRaStar.loRaNodes[9].LoRaNic.queue queueBitLength:vector ETV
attr autoWarmupFilter false
attr interpolationmode sample-hold
attr recordingmode vector
attr source "warmup(atomic(constant0(packetPushEnded) + sum(packetLength(packetPushStarted)) - sum(packetLength(packetPulled)) - sum(packetLength(packetRemoved)) - sum(packetLength(packetDropped))))"
attr title "queue bit length"
attr unit b
vector 263 RailwayLoRaStar.loRaNodes[10].app[0] "SF Vector" ETV
vector 264 RailwayLoRaStar.loRaNodes[10].app[0] "TP Vector" ETV
vector 265 RailwayLoRaStar.loRaNodes[10].LoRaNic.queue incomingPacketLengths:vector ETV
attr interpolationmode none
attr recordingmode vector
attr source packetLength(packetPushStarted)
attr title "incoming packet lengths"
attr unit b
vector 266 RailwayLoRaStar.loRaNodes[10].LoRaNic.queue incomingDataRate:vector ETV
attr interpolationmode linear
attr recordingmode vector
attr source throughput(packetPushStarted)
attr title "incoming datarate"
attr unit bps
vector 267 RailwayLoRaStar.loRaNodes[10].LoRaNic.queue queueingTime:vector ETV
attr interpolationmode none
attr recordingmode vector
attr source queueingTime(packetPulled)
attr title "queueing times"
attr unit s
vector 268 RailwayLoRaStar.loRaNodes[10].LoRaNic.queue outgoingPacketLengths:vector ETV
attr interpolationmode none
attr recordingmode vector
attr source packetLength(packetPulled)
attr title "outgoing packet lengths"
attr unit b
vector 269 RailwayLoRaStar.loRaNodes[10].LoRaNic.queue outgoingDataRate:vector ETV
attr interpolationmode linear
attr recordingmode vector
attr source throughput(packetPulled)
attr title "outgoing datarate"
attr unit bps
vector 270 RailwayLoRaStar.loRaNodes[10].LoRaNic.radio.IdealEpEnergyStorage residualEnergyCapacity:vector ETV
attr interpolationmode linear
attr recordingmode vector
attr source residualEnergyCapacityChanged
attr title "Residual energy capacity"
vector 271 RailwayLoRaStar.loRaNodes[10].LoRaNic.radio transmissionState:vector ETV
attr interpolationmode sample-hold
attr recordingmode vector
attr source transmissionStateChanged
attr title "Radio transmission state"
vector 272 RailwayLoRaStar.loRaNodes[10].LoRaNic.queue queueLength:vector ETV
attr autoWarmupFilter false
attr interpolationmode sample-hold
attr recordingmode vector
attr source "warmup(atomic(constant0(packetPushEnded) + count(packetPushStarted) - count(packetPulled) - count(packetRemoved) - count(packetDropped)))"
attr title "queue length"
attr unit pk
vector 273 RailwayLoRaStar.loRaNodes[10].LoRaNic.queue queueBitLength:vector ETV
attr autoWarmupFilter false
attr interpolationmode sample-hold
attr recordingmode vector
attr source "warmup(atomic(constant0(packetPushEnded) + sum(packetLength(packetPushStarted)) - sum(packetLength(packetPulled)) - sum(packetLength(packetRemoved)) - sum(packetLength(packetDropped))))"
attr title "queue bit length"
attr unit b
vector 274 RailwayLoRaStar.loRaGW[1].udp packetSent:vector(packetBytes) ETV
attr interpolationmode none
attr recordingmode vector(packetBytes)
attr source packetSent
attr title "packets sent, packetBytes"
vector 275 RailwayLoRaStar.loRaGW[1].ipv4.arp arpRequestSent:vector(packetBytes) ETV
attr recordingmode vector(packetBytes)
attr source arpRequestSent
attr title "ARP request sent, packetBytes"
vector 276 RailwayLoRaStar.loRaGW[1].ethernet encapPk:vector(packetBytes) ETV
attr interpolationmode none
attr recordingmode vector(packetBytes)
attr source encapPk
attr title "packets encapsulated, packetBytes"
vector 277 RailwayLoRaStar.loRaGW[1].eth[0].queue incomingPacketLengths:vector ETV
attr interpolationmode none
attr recordingmode vector
attr source packetLength(packetPushStarted)
attr title "incoming packet lengths"
attr unit b
vector 278 RailwayLoRaStar.loRaGW[1].eth[0].queue incomingDataRate:vector ETV
attr interpolationmode linear
attr recordingmode vector
attr source throughput(packetPushStarted)
attr title "incoming datarate"
attr unit bps
vector 279 RailwayLoRaStar.loRaGW[1].eth[0].queue queueingTime:vector ETV
attr interpolationmode none
attr recordingmode vector
attr source queueingTime(packetPulled)
attr title "queueing times"
attr unit s
vector 280 RailwayLoRaStar.loRaGW[1].eth[0].queue outgoingPacketLengths:vector ETV
attr interpolationmode none
attr recordingmode vector
attr source packetLength(packetPulled)
attr title "outgoing packet lengths"
attr unit b
vector 281 RailwayLoRaStar.loRaGW[1].eth[0].queue outgoingDataRate:vector ETV
attr interpolationmode linear
attr recordingmode vector
attr source throughput(packetPulled)
attr title "outgoing datarate"
attr unit bps
vector 282 RailwayLoRaStar.loRaGW[1].eth[0].mac packetReceivedFromUpper:vector(packetBytes) ETV
attr interpolationmode none
attr recordingmode vector(packetBytes)
attr source packetReceivedFromUpper
attr title "packet bytes from higher layer, packetBytes"
vector 283 RailwayLoRaStar.loRaGW[1].eth[0].queue queueLength:vector ETV
attr autoWarmupFilter false
attr interpolationmode sample-hold
attr recordingmode vector
attr source "warmup(atomic(constant0(packetPushEnded) + count(packetPushStarted) - count(packetPulled) - count(packetRemoved) - count(packetDropped)))"
attr title "queue length"
attr unit pk
vector 284 RailwayLoRaStar.loRaGW[1].eth[0].queue queueBitLength:vector ETV
attr autoWarmupFilter false
attr interpolationmode sample-hold
attr recordingmode vector
attr source "warmup(atomic(constant0(packetPushEnded) + sum(packetLength(packetPushStarted)) - sum(packetLength(packetPulled)) - sum(packetLength(packetRemoved)) - sum(packetLength(packetDropped))))"
attr title "queue bit length"
attr unit b
vector 285 RailwayLoRaStar.loRaGW[1].eth[0].mac txPk:vector(packetBytes) ETV
attr interpolationmode none
attr recordingmode vector(packetBytes)
attr source packetSentToLower
attr title "packets transmitted, packetBytes"
vector 286 RailwayLoRaStar.gwRouter1.eth[0].mac rxPkOk:vector(packetBytes) ETV
attr interpolationmode none
attr recordingmode vector(packetBytes)
attr source rxPkOk
attr title "packets received OK, packetBytes"
vector 287 RailwayLoRaStar.gwRouter1.eth[0].mac passedUpPk:vector(packetBytes) ETV
attr interpolationmode none
attr recordingmode vector(packetBytes)
attr source packetSentToUpper
attr title "packets passed to higher layer, packetBytes"
vector 288 RailwayLoRaStar.gwRouter1.ethernet decapPk:vector(packetBytes) ETV
attr interpolationmode none
attr recordingmode vector(packetBytes)
attr source decapPk
attr title "packets decapsulated, packetBytes"
vector 289 RailwayLoRaStar.gwRouter1.ipv4.arp arpReplySent:vector(packetBytes) ETV
attr recordingmode vector(packetBytes)
attr source arpReplySent
attr title "ARP replies sent, packetBytes"
vector 290 RailwayLoRaStar.gwRouter1.ethernet encapPk:vector(packetBytes) ETV
attr interpolationmode none
attr recordingmode vector(packetBytes)
attr source encapPk
attr title "packets encapsulated, packetBytes"
vector 291 RailwayLoRaStar.gwRouter1.eth[0].queue incomingPacketLengths:vector ETV
attr interpolationmode none
attr recordingmode vector
attr source packetLength(packetPushStarted)
attr title "incoming packet lengths"
attr unit b
vector 292 RailwayLoRaStar.gwRouter1.eth[0].queue incomingDataRate:vector ETV
attr interpolationmode linear
attr recordingmode vector
attr source throughput(packetPushStarted)
attr title "incoming datarate"
attr unit bps
vector 293 RailwayLoRaStar.gwRouter1.eth[0].queue queueingTime:vector ETV
attr interpolationmode none
attr recordingmode vector
attr source queueingTime(packetPulled)
attr title "queueing times"
attr unit s
vector 294 RailwayLoRaStar.gwRouter1.eth[0].queue outgoingPacketLengths:vector ETV
attr interpolationmode none
attr recordingmode vector
attr source packetLength(packetPulled)
attr title "outgoing packet lengths"
attr unit b
vector 295 RailwayLoRaStar.gwRouter1.eth[0].queue outgoingDataRate:vector ETV
attr interpolationmode linear
attr recordingmode vector
attr source throughput(packetPulled)
attr title "outgoing datarate"
attr unit bps
vector 296 RailwayLoRaStar.gwRouter1.eth[0].mac packetReceivedFromUpper:vector(packetBytes) ETV
attr interpolationmode none
attr recordingmode vector(packetBytes)
attr source packetReceivedFromUpper
attr title "packet bytes from higher layer, packetBytes"
vector 297 RailwayLoRaStar.gwRouter1.eth[0].queue queueLength:vector ETV
attr autoWarmupFilter false
attr interpolationmode sample-hold
attr recordingmode vector
attr source "warmup(atomic(constant0(packetPushEnded) + count(packetPushStarted) - count(packetPulled) - count(packetRemoved) - count(packetDropped)))"
attr title "queue length"
attr unit pk
vector 298 RailwayLoRaStar.gwRouter1.eth[0].queue queueBitLength:vector ETV
attr autoWarmupFilter false
attr interpolationmode sample-hold
attr recordingmode vector
attr source "warmup(atomic(constant0(packetPushEnded) + sum(packetLength(packetPushStarted)) - sum(packetLength(packetPulled)) - sum(packetLength(packetRemoved)) - sum(packetLength(packetDropped))))"
attr title "queue bit length"
attr unit b
vector 299 RailwayLoRaStar.gwRouter1.eth[0].mac txPk:vector(packetBytes) ETV
attr interpolationmode none
attr recordingmode vector(packetBytes)
attr source packetSentToLower
attr title "packets transmitted, packetBytes"
vector 300 RailwayLoRaStar.loRaGW[1].eth[0].mac rxPkOk:vector(packetBytes) ETV
attr interpolationmode none
attr recordingmode vector(packetBytes)
attr source rxPkOk
attr title "packets received OK, packetBytes"
vector 301 RailwayLoRaStar.loRaGW[1].eth[0].mac passedUpPk:vector(packetBytes) ETV
attr interpolationmode none
attr recordingmode vector(packetBytes)
attr source packetSentToUpper
attr title "packets passed to higher layer, packetBytes"
vector 302 RailwayLoRaStar.loRaGW[1].ethernet decapPk:vector(packetBytes) ETV
attr interpolationmode none
attr recordingmode vector(packetBytes)
attr source decapPk
attr title "packets decapsulated, packetBytes"
vector 303 RailwayLoRaStar.gwRouter1.ppp[0].queue incomingPacketLengths:vector ETV
attr interpolationmode none
attr recordingmode vector
attr source packetLength(packetPushStarted)
attr title "incoming packet lengths"
attr unit b
vector 304 RailwayLoRaStar.gwRouter1.ppp[0].queue incomingDataRate:vector ETV
attr interpolationmode linear
attr recordingmode vector
attr source throughput(packetPushStarted)
attr title "incoming datarate"
attr unit bps
vector 305 RailwayLoRaStar.gwRouter1.ppp[0].queue queueingTime:vector ETV
attr interpolationmode none
attr recordingmode vector
attr source queueingTime(packetPulled)
attr title "queueing times"
attr unit s
vector 306 RailwayLoRaStar.gwRouter1.ppp[0].queue outgoingPacketLengths:vector ETV
attr interpolationmode none
attr recordingmode vector
attr source packetLength(packetPulled)
attr title "outgoing packet lengths"
attr unit b
vector 307 RailwayLoRaStar.gwRouter1.ppp[0].queue outgoingDataRate:vector ETV
attr interpolationmode linear
attr recordingmode vector
attr source throughput(packetPulled)
attr title "outgoing datarate"
attr unit bps
vector 308 RailwayLoRaStar.gwRouter1.ppp[0].ppp txPk:vector(packetBytes) ETV
attr interpolationmode none
attr recordingmode vector(packetBytes)
attr source packetSentToLower
attr title "packets transmitted, packetBytes"
vector 309 RailwayLoRaStar.gwRouter1.ppp[0].queue queueLength:vector ETV
attr autoWarmupFilter false
attr interpolationmode sample-hold
attr recordingmode vector
attr source "warmup(atomic(constant0(packetPushEnded) + count(packetPushStarted) - count(packetPulled) - count(packetRemoved) - count(packetDropped)))"
attr title "queue length"
attr unit pk
vector 310 RailwayLoRaStar.gwRouter1.ppp[0].queue queueBitLength:vector ETV
attr autoWarmupFilter false
attr interpolationmode sample-hold
attr recordingmode vector
attr source "warmup(atomic(constant0(packetPushEnded) + sum(packetLength(packetPushStarted)) - sum(packetLength(packetPulled)) - sum(packetLength(packetRemoved)) - sum(packetLength(packetDropped))))"
attr title "queue bit length"
attr unit b
vector 311 RailwayLoRaStar.internetCloud.ppp[2].ppp rxPkOk:vector(packetBytes) ETV
attr interpolationmode none
attr recordingmode vector(packetBytes)
attr source rxPkOk
attr title "packets received OK, packetBytes"
vector 312 RailwayLoRaStar.internetCloud.ppp[2].ppp passedUpPk:vector(packetBytes) ETV
attr interpolationmode none
attr recordingmode vector(packetBytes)
attr source packetSentToUpper
attr title "packets passed to higher layer, packetBytes"
vector 313 RailwayLoRaStar.internetCloud.ppp[0].queue incomingPacketLengths:vector ETV
attr interpolationmode none
attr recordingmode vector
attr source packetLength(packetPushStarted)
attr title "incoming packet lengths"
attr unit b
vector 314 RailwayLoRaStar.internetCloud.ppp[0].queue incomingDataRate:vector ETV
attr interpolationmode linear
attr recordingmode vector
attr source throughput(packetPushStarted)
attr title "incoming datarate"
attr unit bps
vector 315 RailwayLoRaStar.internetCloud.ppp[0].queue queueingTime:vector ETV
attr interpolationmode none
attr recordingmode vector
attr source queueingTime(packetPulled)
attr title "queueing times"
attr unit s
vector 316 RailwayLoRaStar.internetCloud.ppp[0].queue outgoingPacketLengths:vector ETV
attr interpolationmode none
attr recordingmode vector
attr source packetLength(packetPulled)
attr title "outgoing packet lengths"
attr unit b
vector 317 RailwayLoRaStar.internetCloud.ppp[0].queue outgoingDataRate:vector ETV
attr interpolationmode linear
attr recordingmode vector
attr source throughput(packetPulled)
attr title "outgoing datarate"
attr unit bps
vector 318 RailwayLoRaStar.internetCloud.ppp[0].ppp txPk:vector(packetBytes) ETV
attr interpolationmode none
attr recordingmode vector(packetBytes)
attr source packetSentToLower
attr title "packets transmitted, packetBytes"
vector 319 RailwayLoRaStar.internetCloud.ppp[0].queue queueLength:vector ETV
attr autoWarmupFilter false
attr interpolationmode sample-hold
attr recordingmode vector
attr source "warmup(atomic(constant0(packetPushEnded) + count(packetPushStarted) - count(packetPulled) - count(packetRemoved) - count(packetDropped)))"
attr title "queue length"
attr unit pk
vector 320 RailwayLoRaStar.internetCloud.ppp[0].queue queueBitLength:vector ETV
attr autoWarmupFilter false
attr interpolationmode sample-hold
attr recordingmode vector
attr source "warmup(atomic(constant0(packetPushEnded) + sum(packetLength(packetPushStarted)) - sum(packetLength(packetPulled)) - sum(packetLength(packetRemoved)) - sum(packetLength(packetDropped))))"
attr title "queue bit length"
attr unit b
vector 321 RailwayLoRaStar.nsRouter.ppp[0].ppp rxPkOk:vector(packetBytes) ETV
attr interpolationmode none
attr recordingmode vector(packetBytes)
attr source rxPkOk
attr title "packets received OK, packetBytes"
vector 322 RailwayLoRaStar.nsRouter.ppp[0].ppp passedUpPk:vector(packetBytes) ETV
attr interpolationmode none
attr recordingmode vector(packetBytes)
attr source packetSentToUpper
attr title "packets passed to higher layer, packetBytes"
vector 323 RailwayLoRaStar.nsRouter.ipv4.arp arpRequestSent:vector(packetBytes) ETV
attr recordingmode vector(packetBytes)
attr source arpRequestSent
attr title "ARP request sent, packetBytes"
vector 324 RailwayLoRaStar.nsRouter.ethernet encapPk:vector(packetBytes) ETV
attr interpolationmode none
attr recordingmode vector(packetBytes)
attr source encapPk
attr title "packets encapsulated, packetBytes"
vector 325 RailwayLoRaStar.nsRouter.eth[0].queue incomingPacketLengths:vector ETV
attr interpolationmode none
attr recordingmode vector
attr source packetLength(packetPushStarted)
attr title "incoming packet lengths"
attr unit b
vector 326 RailwayLoRaStar.nsRouter.eth[0].queue incomingDataRate:vector ETV
attr interpolationmode linear
attr recordingmode vector
attr source throughput(packetPushStarted)
attr title "incoming datarate"
attr unit bps
vector 327 RailwayLoRaStar.nsRouter.eth[0].queue queueingTime:vector ETV
attr interpolationmode none
attr recordingmode vector
attr source queueingTime(packetPulled)
attr title "queueing times"
attr unit s
vector 328 RailwayLoRaStar.nsRouter.eth[0].queue outgoingPacketLengths:vector ETV
attr interpolationmode none
attr recordingmode vector
attr source packetLength(packetPulled)
attr title "outgoing packet lengths"
attr unit b
vector 329 RailwayLoRaStar.nsRouter.eth[0].queue outgoingDataRate:vector ETV
attr interpolationmode linear
attr recordingmode vector
attr source throughput(packetPulled)
attr title "outgoing datarate"
attr unit bps
vector 330 RailwayLoRaStar.nsRouter.eth[0].mac packetReceivedFromUpper:vector(packetBytes) ETV
attr interpolationmode none
attr recordingmode vector(packetBytes)
attr source packetReceivedFromUpper
attr title "packet bytes from higher layer, packetBytes"
vector 331 RailwayLoRaStar.nsRouter.eth[0].queue queueLength:vector ETV
attr autoWarmupFilter false
attr interpolationmode sample-hold
attr recordingmode vector
attr source "warmup(atomic(constant0(packetPushEnded) + count(packetPushStarted) - count(packetPulled) - count(packetRemoved) - count(packetDropped)))"
attr title "queue length"
attr unit pk
vector 332 RailwayLoRaStar.nsRouter.eth[0].queue queueBitLength:vector ETV
attr autoWarmupFilter false
attr interpolationmode sample-hold
attr recordingmode vector
attr source "warmup(atomic(constant0(packetPushEnded) + sum(packetLength(packetPushStarted)) - sum(packetLength(packetPulled)) - sum(packetLength(packetRemoved)) - sum(packetLength(packetDropped))))"
attr title "queue bit length"
attr unit b
vector 333 RailwayLoRaStar.nsRouter.eth[0].mac txPk:vector(packetBytes) ETV
attr interpolationmode none
attr recordingmode vector(packetBytes)
attr source packetSentToLower
attr title "packets transmitted, packetBytes"
vector 334 RailwayLoRaStar.networkServer.eth[0].mac rxPkOk:vector(packetBytes) ETV
attr interpolationmode none
[...]
225	21587378 23 428 428 8.2081967725 8.2081967725 1 0 0 0 0
226	21587401 23 428 428 8.2081967725 8.2081967725 1 0 0 0 0
227	21587424 99 451 1040 8.39642532439 11.39642532439 4 0 1 2 2
228	21587523 199 452 1041 8.47218229379 11.47218229379 8 0 3 7 13
229	21587722 25 453 453 8.49357858556 8.49357858556 1 12 12 12 144
230	21587747 25 453 453 8.49357858556 8.49357858556 1 14 14 14 196
231	21587772 25 454 454 8.49357858556 8.49357858556 1 80 80 80 6400
232	21587797 306728 1130 1130 3276.9 5000 17232 0 0 0 0
233	21894525 24 454 454 8.49357858556 8.49357858556 1 0 0 0 0
234	21894549 25 454 454 8.49357858556 8.49357858556 1 80 80 80 6400
235	21894574 306728 1130 1130 3276.9 5000 17232 0 0 0 0
236	22201302 213 454 1101 8.49357858556 14.20570658556 6 -0.3126209856 0 -1.371044928 0.3788218311989
237	22201515 98 454 847 8.49357858556 10.20570658556 4 0 2 4 6
238	22201613 24 454 454 8.49357858556 8.49357858556 1 0 0 0 0
239	22201637 24 454 454 8.49357858556 8.49357858556 1 0 0 0 0
240	22201661 25 477 477 8.52470891946 8.52470891946 1 12 12 12 144
241	22201686 25 477 477 8.52470891946 8.52470891946 1 14 14 14 196
242	22201711 25 478 478 8.52470891946 8.52470891946 1 80 80 80 6400
243	22201736 306728 1130 1130 3276.9 5000 17232 0 0 0 0
244	22508464 24 478 478 8.52470891946 8.52470891946 1 0 0 0 0
245	22508488 25 478 478 8.52470891946 8.52470891946 1 80 80 80 6400
246	22508513 306728 1130 1130 3276.9 5000 17232 0 0 0 0
247	22815241 213 478 1102 8.52470891946 14.23683691946 6 -0.3126209856 0 -1.371044928 0.3788218311989
248	22815454 98 478 869 8.52470891946 10.23683691946 4 0 2 4 6
249	22815552 24 478 478 8.52470891946 8.52470891946 1 0 0 0 0
250	22815576 24 478 478 8.52470891946 8.52470891946 1 0 0 0 0
251	22815600 197 545 1070 8.8245290738 11.8245290738 8 0 3 7 13
252	22815797 25 546 546 8.83010930731 8.83010930731 1 12 12 12 144
253	22815822 25 546 546 8.83010930731 8.83010930731 1 14 14 14 196
254	22815847 25 547 547 8.83010930731 8.83010930731 1 80 80 80 6400
255	22815872 306728 1130 1130 3276.9 5000 17232 0 0 0 0
256	23122600 24 547 547 8.83010930731 8.83010930731 1 0 0 0 0
257	23122624 25 547 547 8.83010930731 8.83010930731 1 80 80 80 6400
258	23122649 306728 1130 1130 3276.9 5000 17232 0 0 0 0
259	23429377 213 547 1105 8.83010930731 14.54223730731 6 -0.3126209856 0 -1.371044928 0.3788218311989
260	23429590 98 547 895 8.83010930731 10.54223730731 4 0 2 4 6
261	23429688 24 547 547 8.83010930731 8.83010930731 1 0 0 0 0
262	23429712 24 547 547 8.83010930731 8.83010930731 1 0 0 0 0
263	23429736 24 570 570 8.8307852596 8.8307852596 1 12 12 12 144
264	23429760 24 570 570 8.8307852596 8.8307852596 1 14 14 14 196
265	23429784 24 571 571 8.8307852596 8.8307852596 1 80 80 80 6400
266	23429808 306728 1130 1130 3276.9 5000 17232 0 0 0 0
267	23736536 23 571 571 8.8307852596 8.8307852596 1 0 0 0 0
268	23736559 24 571 571 8.8307852596 8.8307852596 1 80 80 80 6400
269	23736583 306728 1130 1130 3276.9 5000 17232 0 0 0 0
270	24043311 207 571 1106 8.8307852596 14.5429132596 6 -0.3126209856 0 -1.371044928 0.3788218311989
271	24043518 94 571 917 8.8307852596 10.5429132596 4 0 2 4 6
272	24043612 23 571 571 8.8307852596 8.8307852596 1 0 0 0 0
273	24043635 23 571 571 8.8307852596 8.8307852596 1 0 0 0 0
274	24043658 25 602 602 9.19782236464 9.19782236464 1 35 35 35 1225
275	24043683 25 603 603 9.19782236464 9.19782236464 1 28 28 28 784
276	24043708 50 604 621 9.19782236464 9.19782361664 2 28 55 83 3809
277	24043758 52 605 622 9.19782236464 9.19782361664 2 368 584 952 476480
278	24043810 1256 605 605 0.1 9.1 91 0 0 0 0
279	24045066 48 605 622 9.19782236464 9.19782361664 2 0 0 0 0
280	24045114 52 605 622 9.19782236464 9.19782361664 2 368 584 952 476480
281	24045166 1256 605 605 0.1 9.1 91 0 0 0 0
282	24046422 50 605 622 9.19782236464 9.19782361664 2 46 73 119 7445
283	24046472 48 605 622 9.19782236464 9.19782361664 2 0 0 0 0
284	24046520 48 605 622 9.19782236464 9.19782361664 2 0 0 0 0
285	24046568 50 608 626 9.19782294064 9.19782426464 2 64 73 137 9425
286	24046618 50 609 627 9.19782299064 9.19782431464 2 64 73 137 9425
287	24046668 50 609 627 9.19782299064 9.19782431464 2 64 73 137 9425
288	24046718 50 610 628 9.19782299064 9.19782431464 2 46 55 101 5141
289	24046768 25 611 611 9.19782299064 9.19782299064 1 28 28 28 784
290	24046793 25 612 612 9.19782299064 9.19782299064 1 28 28 28 784
291	24046818 26 613 613 9.19782299064 9.19782299064 1 368 368 368 135424
292	24046844 1256 613 613 0.1 9.1 91 0 0 0 0
293	24048100 24 613 613 9.19782299064 9.19782299064 1 0 0 0 0
294	24048124 26 613 613 9.19782299064 9.19782299064 1 368 368 368 135424
295	24048150 1256 613 613 0.1 9.1 91 0 0 0 0
296	24049406 25 613 613 9.19782299064 9.19782299064 1 46 46 46 2116
297	24049431 24 613 613 9.19782299064 9.19782299064 1 0 0 0 0
298	24049455 24 613 613 9.19782299064 9.19782299064 1 0 0 0 0
299	24049479 25 617 617 9.19782356664 9.19782356664 1 64 64 64 4096
300	24049504 25 618 618 9.19782361664 9.19782361664 1 64 64 64 4096
301	24049529 25 618 618 9.19782361664 9.19782361664 1 64 64 64 4096
302	24049554 25 619 619 9.19782361664 9.19782361664 1 46 46 46 2116
303	24049579 26 630 630 9.19782431464 9.19782431464 1 440 440 440 193600
304	24049605 1256 630 630 0.1 9.1 91 0 0 0 0
305	24050861 24 630 630 9.19782431464 9.19782431464 1 0 0 0 0
306	24050885 26 630 630 9.19782431464 9.19782431464 1 440 440 440 193600
307	24050911 1256 630 630 0.1 9.1 91 0 0 0 0
308	24052167 25 630 630 9.19782431464 9.19782431464 1 62 62 62 3844
309	24052192 24 630 630 9.19782431464 9.19782431464 1 0 0 0 0
310	24052216 24 630 630 9.19782431464 9.19782431464 1 0 0 0 0
311	24052240 25 634 634 9.19782486064 9.19782486064 1 62 62 62 3844
312	24052265 25 634 634 9.19782486064 9.19782486064 1 55 55 55 3025
313	24052290 54 649 1002 9.20782530064 11.05250175386 2 440 440 880 387200
314	24052344 1550 649 1002 0.1 11 110 0 4400 4400 19360000
315	24053894 50 649 1002 9.20782530064 11.05250175386 2 0 0 0 0
316	24053944 54 649 1002 9.20782530064 11.05250175386 2 440 440 880 387200
317	24053998 1550 649 1002 0.1 11 110 0 4400 4400 19360000
318	24055548 52 649 1002 9.20782530064 11.05250175386 2 62 62 124 7688
319	24055600 50 649 1002 9.20782530064 11.05250175386 2 0 0 0 0
320	24055650 50 649 1002 9.20782530064 11.05250175386 2 0 0 0 0
321	24055700 52 651 1004 9.20782584664 11.05250229986 2 62 62 124 7688
322	24055752 52 651 1004 9.20782584664 11.05250229986 2 55 55 110 6050
323	24055804 25 652 652 9.20782584664 9.20782584664 1 28 28 28 784
324	24055829 77 653 1006 9.20782584664 11.05250229986 3 28 55 138 6834
325	24055906 80 654 1007 9.20782584664 11.05250229986 3 368 584 1536 817536
326	24055986 1550 654 1007 0.1 11 110 0 9520 9520 90630400
327	24057536 74 654 1007 9.20782584664 11.05250229986 3 0 0 0 0
328	24057610 80 654 1007 9.20782584664 11.05250229986 3 368 584 1536 817536
329	24057690 1550 654 1007 0.1 11 110 0 9520 9520 90630400
330	24059240 77 654 1007 9.20782584664 11.05250229986 3 46 73 192 12774
331	24059317 74 654 1007 9.20782584664 11.05250229986 3 0 0 0 0
332	24059391 74 654 1007 9.20782584664 11.05250229986 3 0 0 0 0
333	24059465 77 655 1008 9.20782642264 11.05250294786 3 64 73 210 14754
334	24059542 77 656 1009 9.20782647264 11.05250299786 3 64 73 210 14754
335	24059619 77 656 1009 9.20782647264 11.05250299786 3 64 73 210 14754
336	24059696 77 657 1010 9.20782647264 11.05250299786 3 46 55 156 8166
337	24059773 25 658 658 9.20782647264 9.20782647264 1 28 28 28 784
338	24059798 25 659 659 9.20782647264 9.20782647264 1 28 28 28 784
339	24059823 26 660 660 9.20782647264 9.20782647264 1 368 368 368 135424
340	24059849 1270 660 660 0.1 9.2 92 0 0 0 0
341	24061119 24 660 660 9.20782647264 9.20782647264 1 0 0 0 0
342	24061143 26 660 660 9.20782647264 9.20782647264 1 368 368 368 135424
343	24061169 1270 660 660 0.1 9.2 92 0 0 0 0
344	24062439 25 660 660 9.20782647264 9.20782647264 1 46 46 46 2116
345	24062464 24 660 660 9.20782647264 9.20782647264 1 0 0 0 0
346	24062488 24 660 660 9.20782647264 9.20782647264 1 0 0 0 0
347	24062512 25 662 662 9.20782704864 9.20782704864 1 64 64 64 4096
348	24062537 25 663 663 9.20782709864 9.20782709864 1 64 64 64 4096
349	24062562 25 663 663 9.20782709864 9.20782709864 1 64 64 64 4096
350	24062587 25 664 664 9.20782709864 9.20782709864 1 46 46 46 2116
351	24062612 52 673 1012 9.20782779664 11.05250299786 2 35 35 70 2450
352	24062664 37 674 674 9.20782779664 9.20782779664 1 7.171251453881 7.171251453881 7.171251453881 51.42684741479
353	24062701 39 674 674 9.20782779664 9.20782779664 1 -119.75698125339 -119.75698125339 -119.75698125339 14341.734558924
354	24062740 25 676 676 9.33036969905 9.33036969905 1 12 12 12 144
355	24062765 25 676 676 9.33036969905 9.33036969905 1 14 14 14 196
356	24062790 25 677 677 9.33036969905 9.33036969905 1 80 80 80 6400
357	24062815 306728 1130 1130 3276.9 5000 17232 0 0 0 0
358	24369543 24 677 677 9.33036969905 9.33036969905 1 0 0 0 0
359	24369567 25 677 677 9.33036969905 9.33036969905 1 80 80 80 6400
360	24369592 306728 1130 1130 3276.9 5000 17232 0 0 0 0
361	24676320 213 677 1107 9.33036969905 15.04249769905 6 -0.3126209856 0 -1.371044928 0.3788218311989
362	24676533 98 677 949 9.33036969905 11.04249769905 4 0 2 4 6
363	24676631 24 677 677 9.33036969905 9.33036969905 1 0 0 0 0
364	24676655 24 677 677 9.33036969905 9.33036969905 1 0 0 0 0
365	24676679 101 702 1082 9.54567488901 12.54567488901 4 0 1 2 2
366	24676780 25 703 703 9.61439638888 9.61439638888 1 12 12 12 144
367	24676805 25 703 703 9.61439638888 9.61439638888 1 14 14 14 196
368	24676830 25 704 704 9.61439638888 9.61439638888 1 80 80 80 6400
369	24676855 306728 1130 1130 3276.9 5000 17232 0 0 0 0
370	24983583 24 704 704 9.61439638888 9.61439638888 1 0 0 0 0
371	24983607 25 704 704 9.61439638888 9.61439638888 1 80 80 80 6400
372	24983632 306728 1130 1130 3276.9 5000 17232 0 0 0 0
373	25290360 214 704 1108 9.61439638888 15.32652438888 6 -0.3126209856 0 -1.371044928 0.3788218311989
374	25290574 100 704 1018 9.61439638888 11.32652438888 4 0 2 4 6
375	25290674 24 704 704 9.61439638888 9.61439638888 1 0 0 0 0
376	25290698 24 704 704 9.61439638888 9.61439638888 1 0 0 0 0
377	25290722 25 771 771 9.80756508606 9.80756508606 1 12 12 12 144
378	25290747 25 771 771 9.80756508606 9.80756508606 1 14 14 14 196
379	25290772 25 772 772 9.80756508606 9.80756508606 1 80 80 80 6400
380	25290797 306728 1130 1130 3276.9 5000 17232 0 0 0 0
381	25597525 24 772 772 9.80756508606 9.80756508606 1 0 0 0 0
382	25597549 25 772 772 9.80756508606 9.80756508606 1 80 80 80 6400
383	25597574 306728 1130 1130 3276.9 5000 17232 0 0 0 0
384	25904302 214 772 1109 9.80756508606 15.51969308606 6 -0.3126209856 0 -1.371044928 0.3788218311989
385	25904516 100 772 1042 9.80756508606 11.51969308606 4 0 2 4 6
386	25904616 24 772 772 9.80756508606 9.80756508606 1 0 0 0 0
387	25904640 24 772 772 9.80756508606 9.80756508606 1 0 0 0 0
388	25904664 101 795 1085 9.82204380295 12.82204380295 4 0 1 2 2
389	25904765 103 846 1089 10.19782186429 13.19782186429 4 0 1 2 2
390	25904868 95 940 1096 10.715538812 13.715538812 4 0 1 2 2
391	25904963 103 941 1097 10.73689058087 13.73689058087 4 0 1 2 2
392	25905066 103 945 1098 10.90455507454 13.90455507454 4 0 1 2 2
393	25905169 99 946 1099 10.9203247725 13.9203247725 4 0 1 2 2
394	25905268 26 960 960 11.04249881786 11.04249881786 1 35 35 35 1225
395	25905294 26 961 961 11.04249881786 11.04249881786 1 28 28 28 784
396	25905320 52 962 979 11.04249881786 11.04250006986 2 28 55 83 3809
397	25905372 54 963 980 11.04249881786 11.04250006986 2 368 584 952 476480
398	25905426 1529 963 963 0.1 11 110 0 0 0 0
399	25906955 50 963 980 11.04249881786 11.04250006986 2 0 0 0 0
400	25907005 54 963 980 11.04249881786 11.04250006986 2 368 584 952 476480
401	25907059 1529 963 963 0.1 11 110 0 0 0 0
402	25908588 52 963 980 11.04249881786 11.04250006986 2 46 73 119 7445
403	25908640 50 963 980 11.04249881786 11.04250006986 2 0 0 0 0
404	25908690 50 963 980 11.04249881786 11.04250006986 2 0 0 0 0
405	25908740 52 965 983 11.04249939386 11.04250071786 2 64 73 137 9425
406	25908792 52 967 985 11.04249944386 11.04250076786 2 64 73 137 9425
407	25908844 52 967 985 11.04249944386 11.04250076786 2 64 73 137 9425
408	25908896 52 968 986 11.04249944386 11.04250076786 2 46 55 101 5141
409	25908948 26 969 969 11.04249944386 11.04249944386 1 28 28 28 784
410	25908974 26 970 970 11.04249944386 11.04249944386 1 28 28 28 784
411	25909000 27 971 971 11.04249944386 11.04249944386 1 368 368 368 135424
412	25909027 1529 971 971 0.1 11 110 0 0 0 0
413	25910556 25 971 971 11.04249944386 11.04249944386 1 0 0 0 0
414	25910581 27 971 971 11.04249944386 11.04249944386 1 368 368 368 135424
415	25910608 1529 971 971 0.1 11 110 0 0 0 0
416	25912137 26 971 971 11.04249944386 11.04249944386 1 46 46 46 2116
417	25912163 25 971 971 11.04249944386 11.04249944386 1 0 0 0 0
418	25912188 25 971 971 11.04249944386 11.04249944386 1 0 0 0 0
419	25912213 26 974 974 11.04250001986 11.04250001986 1 64 64 64 4096
420	25912239 26 976 976 11.04250006986 11.04250006986 1 64 64 64 4096
421	25912265 26 976 976 11.04250006986 11.04250006986 1 64 64 64 4096
422	25912291 26 977 977 11.04250006986 11.04250006986 1 46 46 46 2116
423	25912317 27 988 988 11.04250076786 11.04250076786 1 440 440 440 193600
424	25912344 1529 988 988 0.1 11 110 0 0 0 0
425	25913873 25 988 988 11.04250076786 11.04250076786 1 0 0 0 0
426	25913898 27 988 988 11.04250076786 11.04250076786 1 440 440 440 193600
427	25913925 1529 988 988 0.1 11 110 0 0 0 0
428	25915454 26 988 988 11.04250076786 11.04250076786 1 62 62 62 3844
429	25915480 25 988 988 11.04250076786 11.04250076786 1 0 0 0 0
430	25915505 25 988 988 11.04250076786 11.04250076786 1 0 0 0 0
431	25915530 26 992 992 11.04250131386 11.04250131386 1 62 62 62 3844
432	25915556 26 992 992 11.04250131386 11.04250131386 1 55 55 55 3025
433	25915582 40 1013 1013 11.05250299786 11.05250299786 1 1.6187945714822 1.6187945714822 1.6187945714822 2.6204958646603
434	25915622 41 1013 1013 11.05250299786 11.05250299786 1 -128.55580602018 -128.55580602018 -128.55580602018 16526.595261498
435	25915663 104 1016 1101 11.20570658556 14.20570658556 4 0 1 2 2
436	25915767 104 1017 1102 11.23683691946 14.23683691946 4 0 1 2 2
437	25915871 104 1064 1105 11.54223730731 14.54223730731 4 0 1 2 2
438	25915975 100 1065 1106 11.5429132596 14.5429132596 4 0 1 2 2
439	25916075 104 1073 1107 12.04249769905 15.04249769905 4 0 1 2 2
440	25916179 104 1078 1108 12.32652438888 15.32652438888 4 0 1 2 2
441	25916283 104 1079 1109 12.51969308606 15.51969308606 4 0 1 2 2
87	25916387 539562 1130 1130 5.2 3281.9 32768 0 800 800 640000
84	26455949 539562 1130 1130 5.2 3281.9 32768 0 800 800 640000
120	26995511 572343 1130 1130 5.7 3282.4 32768 0 800 800 640000
117	27567854 572343 1130 1130 5.7 3282.4 32768 0 800 800 640000
199	28140197 572417 1130 1130 8.1 3284.8 32768 0 800 800 640000
196	28712614 572417 1130 1130 8.1 3284.8 32768 0 800 800 640000
164	29285031 572390 1130 1130 7.2 3283.9 32768 0 800 800 640000
161	29857421 572390 1130 1130 7.2 3283.9 32768 0 800 800 640000
175	30429811 572397 1130 1130 7.5 3284.2 32768 0 800 800 640000
172	31002208 572397 1130 1130 7.5 3284.2 32768 0 800 800 640000
401	31574605 572497 1130 1130 11.1 3287.8 32768 0 9520 9520 90630400
398	32147102 572497 1130 1130 11.1 3287.8 32768 0 9520 9520 90630400
281	32719599 572451 1130 1130 9.2 3285.9 32768 0 9520 9520 90630400
278	33292050 572451 1130 1130 9.2 3285.9 32768 0 9520 9520 90630400
343	33864501 572452 1130 1130 9.3 3286 32768 0 3680 3680 13542400
340	34436953 572452 1130 1130 9.3 3286 32768 0 3680 3680 13542400
317	35009405 572497 1130 1130 11.1 3287.8 32768 0 4400 4400 19360000
314	35581902 572497 1130 1130 11.1 3287.8 32768 0 4400 4400 19360000
vector 442 RailwayLoRaStar.internetCloud.ppp[1].queue outgoingDataRate:vector ETV
attr interpolationmode linear
attr recordingmode vector
attr source throughput(packetPulled)
attr title "outgoing datarate"
attr unit bps
442	36154619 572175 1130 1130 0.1 3276.8 32768 0 0 0 0
vector 443 RailwayLoRaStar.internetCloud.ppp[1].queue incomingDataRate:vector ETV
attr interpolationmode linear
attr recordingmode vector
attr source throughput(packetPushStarted)
attr title "incoming datarate"
attr unit bps
443	36727019 572175 1130 1130 0.1 3276.8 32768 0 0 0 0
vector 444 RailwayLoRaStar.internetCloud.ppp[2].queue outgoingDataRate:vector ETV
attr interpolationmode linear
attr recordingmode vector
attr source throughput(packetPulled)
attr title "outgoing datarate"
attr unit bps
444	37299414 572175 1130 1130 0.1 3276.8 32768 0 0 0 0
vector 445 RailwayLoRaStar.internetCloud.ppp[2].queue incomingDataRate:vector ETV
attr interpolationmode linear
attr recordingmode vector
attr source throughput(packetPushStarted)
attr title "incoming datarate"
attr unit bps
445	37871814 572175 1130 1130 0.1 3276.8 32768 0 0 0 0
427	38443989 572497 1130 1130 11.1 3287.8 32768 0 4400 4400 19360000
424	39016486 572497 1130 1130 11.1 3287.8 32768 0 4400 4400 19360000
415	39588983 572497 1130 1130 11.1 3287.8 32768 0 3680 3680 13542400
412	40161480 572497 1130 1130 11.1 3287.8 32768 0 3680 3680 13542400
307	40733977 572451 1130 1130 9.2 3285.9 32768 0 4400 4400 19360000
84	41306428 288639 1130 1130 3282 5000 17181 0 0 0 0
87	41595067 288639 1130 1130 3282 5000 17181 0 0 0 0
117	41883706 305732 1130 1130 3282.5 5000 17176 0 0 0 0
120	42189438 305732 1130 1130 3282.5 5000 17176 0 0 0 0
161	42495170 305464 1130 1130 3284 5000 17161 0 0 0 0
164	42800634 305464 1130 1130 3284 5000 17161 0 0 0 0
172	43106098 305412 1130 1130 3284.3 5000 17158 0 0 0 0
175	43411510 305412 1130 1130 3284.3 5000 17158 0 0 0 0
196	43716922 305304 1130 1130 3284.9 5000 17152 0 0 0 0
199	44022226 305304 1130 1130 3284.9 5000 17152 0 0 0 0
219	44327530 527236 1130 1130 2038.1 5000 29620 0 0 0 0
278	44854766 305108 1130 1130 3286 5000 17141 0 0 0 0
281	45159874 305108 1130 1130 3286 5000 17141 0 0 0 0
304	45464982 548189 1130 1130 9.2 3149.6 31405 0 4400 4400 19360000
307	46013171 305108 1130 1130 3286 5000 17141 0 0 0 0
314	46318279 304770 1130 1130 3287.9 5000 17122 0 0 0 0
317	46623049 304770 1130 1130 3287.9 5000 17122 0 0 0 0
340	46927819 305092 1130 1130 3286.1 5000 17140 0 0 0 0
343	47232911 305092 1130 1130 3286.1 5000 17140 0 0 0 0
398	47538003 304770 1130 1130 3287.9 5000 17122 0 0 0 0
401	47842773 304770 1130 1130 3287.9 5000 17122 0 0 0 0
412	48147543 304770 1130 1130 3287.9 5000 17122 0 0 0 0
415	48452313 304770 1130 1130 3287.9 5000 17122 0 0 0 0
424	48757083 304770 1130 1130 3287.9 5000 17122 0 0 0 0
427	49061853 304770 1130 1130 3287.9 5000 17122 0 0 0 0
442	49366623 306728 1130 1130 3276.9 5000 17232 0 0 0 0
443	49673351 306728 1130 1130 3276.9 5000 17232 0 0 0 0
444	49980079 306728 1130 1130 3276.9 5000 17232 0 0 0 0
445	50286807 306728 1130 1130 3276.9 5000 17232 0 0 0 0
295	50593535 572451 1130 1130 9.2 3285.9 32768 0 3680 3680 13542400
292	51165986 572451 1130 1130 9.2 3285.9 32768 0 3680 3680 13542400
vector 446 RailwayLoRaStar.nsRouter.ppp[0].queue outgoingDataRate:vector ETV
attr interpolationmode linear
attr recordingmode vector
attr source throughput(packetPulled)
attr title "outgoing datarate"
attr unit bps
446	51738652 572175 1130 1130 0.1 3276.8 32768 0 0 0 0
vector 447 RailwayLoRaStar.nsRouter.ppp[0].queue incomingDataRate:vector ETV
attr interpolationmode linear
attr recordingmode vector
attr source throughput(packetPushStarted)
attr title "incoming datarate"
attr unit bps
447	52311047 572175 1130 1130 0.1 3276.8 32768 0 0 0 0
329	52883222 572497 1130 1130 11.1 3287.8 32768 0 5840 5840 34105600
326	53455719 572497 1130 1130 11.1 3287.8 32768 0 5840 5840 34105600
292	54028216 305108 1130 1130 3286 5000 17141 0 0 0 0
295	54333324 305108 1130 1130 3286 5000 17141 0 0 0 0
304	54638432 329370 1130 1130 3149.7 5000 18504 0 0 0 0
326	54967802 304770 1130 1130 3287.9 5000 17122 0 0 0 0
329	55272572 304770 1130 1130 3287.9 5000 17122 0 0 0 0
446	55577342 306728 1130 1130 3276.9 5000 17232 0 0 0 0
447	55884070 306728 1130 1130 3276.9 5000 17232 0 0 0 0

