version 3
run General-0-20250429-22:36:00-7281
attr configname General
attr datetime 20250429-22:36:00
attr datetimef 20250429-223600
attr experiment General
attr inifile RailwayLoRaStar.ini
attr iterationvars ""
attr iterationvarsd ""
attr iterationvarsf ""
attr measurement ""
attr network flora.simulations.RailwayLoRaStar
attr processid 7281
attr repetition 0
attr replication #0
attr resultdir results
attr runnumber 0
attr seedset 0
config image-path ../../inet4.4/images
config network flora.simulations.RailwayLoRaStar
config sim-time-limit 5000s
config simtime-resolution -11
config **.maxTransmissionDuration 10s
config output-vector-file results/railway-lora-0.vec
config output-scalar-file results/railway-lora-0.sca
config **.vector-recording true
config record-eventlog true
config rng-class cMersenneTwister
config **.loRaGW[0].packetForwarder.destPort 1000
config **.loRaGW[0].packetForwarder.localPort 2000
config **.loRaGW[0].packetForwarder.destAddresses "\"networkServer\""
config **.loRaGW[1].packetForwarder.destPort 1000
config **.loRaGW[1].packetForwarder.localPort 2001
config **.loRaGW[1].packetForwarder.destAddresses "\"networkServer\""
config **.networkServer.numApps 1
config **.networkServer.app[0].typename NetworkServerApp
config **.networkServer.app[0].localPort 1000
config **.networkServer.app[0].adrMethod "\"avg\""
config **.loRaNodes[*].numApps 1
config **.loRaNodes[*].app[0].typename SimpleLoRaApp
config **.loRaNodes[*].**initialLoRaSF 12
config **.loRaNodes[*].**initialLoRaTP 14dBm
config **.loRaNodes[*].**.evaluateADRinNode true
config **.loRaNodes[*].LoRaNic.radio.energyConsumer.typename LoRaEnergyConsumer
config **.loRaNodes[*].**.energySourceModule "\"^.IdealEpEnergyStorage\""
config **.loRaNodes[*].LoRaNic.radio.energyConsumer.configFile "xmldoc(\"energyConsumptionParameters.xml\")"
config **.loRaNodes[*].**.initFromDisplayString false
config **.loRaGW[*].**.initFromDisplayString false
config **.loRaGW[0].mobility.initialX 100m
config **.loRaGW[0].mobility.initialY 400m
config **.loRaGW[1].mobility.initialX 2000m
config **.loRaGW[1].mobility.initialY 400m
config **.loRaNodes[0].**.initialX 100m
config **.loRaNodes[0].**.initialY 650m
config **.loRaNodes[1].**.initialX 200m
config **.loRaNodes[1].**.initialY 550m
config **.loRaNodes[2].**.initialX 300m
config **.loRaNodes[2].**.initialY 650m
config **.loRaNodes[3].**.initialX 400m
config **.loRaNodes[3].**.initialY 550m
config **.loRaNodes[4].**.initialX 500m
config **.loRaNodes[4].**.initialY 650m
config **.loRaNodes[5].**.initialX 600m
config **.loRaNodes[5].**.initialY 550m
config **.loRaNodes[6].**.initialX 700m
config **.loRaNodes[6].**.initialY 650m
config **.loRaNodes[7].**.initialX 800m
config **.loRaNodes[7].**.initialY 550m
config **.loRaNodes[8].**.initialX 900m
config **.loRaNodes[8].**.initialY 650m
config **.loRaNodes[9].**.initialX 1000m
config **.loRaNodes[9].**.initialY 550m
config **.loRaNodes[10].**.initialX 1100m
config **.loRaNodes[10].**.initialY 650m
config **.loRaNodes[11].**.initialX 1200m
config **.loRaNodes[11].**.initialY 550m
config **.loRaNodes[12].**.initialX 1300m
config **.loRaNodes[12].**.initialY 650m
config **.loRaNodes[13].**.initialX 1400m
config **.loRaNodes[13].**.initialY 550m
config **.loRaNodes[14].**.initialX 1500m
config **.loRaNodes[14].**.initialY 650m
config **.loRaNodes[15].**.initialX 1600m
config **.loRaNodes[15].**.initialY 550m
config **.loRaNodes[16].**.initialX 1700m
config **.loRaNodes[16].**.initialY 650m
config **.loRaNodes[17].**.initialX 1800m
config **.loRaNodes[17].**.initialY 550m
config **.loRaNodes[18].**.initialX 1900m
config **.loRaNodes[18].**.initialY 650m
config **.loRaNodes[19].**.initialX 2000m
config **.loRaNodes[19].**.initialY 550m
config **.timeToFirstPacket "uniform(1s, 10s)"
config **.timeToNextPacket exponential(60s)
config **.radio.radioMediumModule "\"LoRaMedium\""
config **.minInterferenceTime 0s
config **.ipv4Delayer.config "xmldoc(\"cloudDelays.xml\")"
config **.constraintAreaMinX 0m
config **.constraintAreaMaxX 2500m
config **.constraintAreaMinY -50m
config **.constraintAreaMaxY 900m
config cmdenv-express-mode false

par RailwayLoRaStar.networkServer.ethg$o[0].channel typename "\"inet.node.ethernet.Eth1G\""
par RailwayLoRaStar.networkServer.ethg$o[0].channel disabled false
attr mutable ""
par RailwayLoRaStar.networkServer.ethg$o[0].channel delay 5e-08s
attr mutable ""
attr unit s
par RailwayLoRaStar.networkServer.ethg$o[0].channel datarate 1e+09bps
attr mutable ""
attr unit bps
par RailwayLoRaStar.networkServer.ethg$o[0].channel ber 0
attr mutable ""
par RailwayLoRaStar.networkServer.ethg$o[0].channel per 0
attr mutable ""
par RailwayLoRaStar.networkServer.ethg$o[0].channel length 10m
attr unit m
par RailwayLoRaStar.nsRouter.ethg$o[0].channel typename "\"inet.node.ethernet.Eth1G\""
par RailwayLoRaStar.nsRouter.ethg$o[0].channel disabled false
attr mutable ""
par RailwayLoRaStar.nsRouter.ethg$o[0].channel delay 5e-08s
attr mutable ""
attr unit s
par RailwayLoRaStar.nsRouter.ethg$o[0].channel datarate 1e+09bps
attr mutable ""
attr unit bps
par RailwayLoRaStar.nsRouter.ethg$o[0].channel ber 0
attr mutable ""
par RailwayLoRaStar.nsRouter.ethg$o[0].channel per 0
attr mutable ""
par RailwayLoRaStar.nsRouter.ethg$o[0].channel length 10m
attr unit m
par RailwayLoRaStar.nsRouter.pppg$o[0].channel typename "\"inet.node.ethernet.Eth1G\""
par RailwayLoRaStar.nsRouter.pppg$o[0].channel disabled false
attr mutable ""
par RailwayLoRaStar.nsRouter.pppg$o[0].channel delay 5e-08s
attr mutable ""
attr unit s
par RailwayLoRaStar.nsRouter.pppg$o[0].channel datarate 1e+09bps
attr mutable ""
attr unit bps
par RailwayLoRaStar.nsRouter.pppg$o[0].channel ber 0
attr mutable ""
par RailwayLoRaStar.nsRouter.pppg$o[0].channel per 0
attr mutable ""
par RailwayLoRaStar.nsRouter.pppg$o[0].channel length 10m
attr unit m
par RailwayLoRaStar.internetCloud.pppg$o[0].channel typename "\"inet.node.ethernet.Eth1G\""
par RailwayLoRaStar.internetCloud.pppg$o[0].channel disabled false
attr mutable ""
par RailwayLoRaStar.internetCloud.pppg$o[0].channel delay 5e-08s
attr mutable ""
attr unit s
par RailwayLoRaStar.internetCloud.pppg$o[0].channel datarate 1e+09bps
attr mutable ""
attr unit bps
par RailwayLoRaStar.internetCloud.pppg$o[0].channel ber 0
attr mutable ""
par RailwayLoRaStar.internetCloud.pppg$o[0].channel per 0
attr mutable ""
par RailwayLoRaStar.internetCloud.pppg$o[0].channel length 10m
attr unit m
par RailwayLoRaStar.internetCloud.pppg$o[1].channel typename "\"inet.node.ethernet.Eth1G\""
par RailwayLoRaStar.internetCloud.pppg$o[1].channel disabled false
attr mutable ""
par RailwayLoRaStar.internetCloud.pppg$o[1].channel delay 5e-08s
attr mutable ""
attr unit s
par RailwayLoRaStar.internetCloud.pppg$o[1].channel datarate 1e+09bps
attr mutable ""
attr unit bps
par RailwayLoRaStar.internetCloud.pppg$o[1].channel ber 0
attr mutable ""
par RailwayLoRaStar.internetCloud.pppg$o[1].channel per 0
attr mutable ""
par RailwayLoRaStar.internetCloud.pppg$o[1].channel length 10m
attr unit m
par RailwayLoRaStar.gwRouter0.pppg$o[0].channel typename "\"inet.node.ethernet.Eth1G\""
par RailwayLoRaStar.gwRouter0.pppg$o[0].channel disabled false
attr mutable ""
par RailwayLoRaStar.gwRouter0.pppg$o[0].channel delay 5e-08s
attr mutable ""
attr unit s
par RailwayLoRaStar.gwRouter0.pppg$o[0].channel datarate 1e+09bps
attr mutable ""
attr unit bps
par RailwayLoRaStar.gwRouter0.pppg$o[0].channel ber 0
attr mutable ""
par RailwayLoRaStar.gwRouter0.pppg$o[0].channel per 0
attr mutable ""
par RailwayLoRaStar.gwRouter0.pppg$o[0].channel length 10m
attr unit m
par RailwayLoRaStar.gwRouter0.ethg$o[0].channel typename "\"inet.node.ethernet.Eth1G\""
par RailwayLoRaStar.gwRouter0.ethg$o[0].channel disabled false
attr mutable ""
par RailwayLoRaStar.gwRouter0.ethg$o[0].channel delay 5e-08s
attr mutable ""
attr unit s
par RailwayLoRaStar.gwRouter0.ethg$o[0].channel datarate 1e+09bps
attr mutable ""
attr unit bps
par RailwayLoRaStar.gwRouter0.ethg$o[0].channel ber 0
attr mutable ""
par RailwayLoRaStar.gwRouter0.ethg$o[0].channel per 0
attr mutable ""
par RailwayLoRaStar.gwRouter0.ethg$o[0].channel length 10m
attr unit m
par RailwayLoRaStar.loRaGW[0].ethg$o[0].channel typename "\"inet.node.ethernet.Eth1G\""
par RailwayLoRaStar.loRaGW[0].ethg$o[0].channel disabled false
attr mutable ""
par RailwayLoRaStar.loRaGW[0].ethg$o[0].channel delay 5e-08s
attr mutable ""
attr unit s
par RailwayLoRaStar.loRaGW[0].ethg$o[0].channel datarate 1e+09bps
attr mutable ""
attr unit bps
par RailwayLoRaStar.loRaGW[0].ethg$o[0].channel ber 0
attr mutable ""
par RailwayLoRaStar.loRaGW[0].ethg$o[0].channel per 0
attr mutable ""
par RailwayLoRaStar.loRaGW[0].ethg$o[0].channel length 10m
attr unit m
par RailwayLoRaStar.internetCloud.pppg$o[2].channel typename "\"inet.node.ethernet.Eth1G\""
par RailwayLoRaStar.internetCloud.pppg$o[2].channel disabled false
attr mutable ""
par RailwayLoRaStar.internetCloud.pppg$o[2].channel delay 5e-08s
attr mutable ""
attr unit s
par RailwayLoRaStar.internetCloud.pppg$o[2].channel datarate 1e+09bps
attr mutable ""
attr unit bps
par RailwayLoRaStar.internetCloud.pppg$o[2].channel ber 0
attr mutable ""
par RailwayLoRaStar.internetCloud.pppg$o[2].channel per 0
attr mutable ""
par RailwayLoRaStar.internetCloud.pppg$o[2].channel length 10m
attr unit m
par RailwayLoRaStar.gwRouter1.pppg$o[0].channel typename "\"inet.node.ethernet.Eth1G\""
par RailwayLoRaStar.gwRouter1.pppg$o[0].channel disabled false
attr mutable ""
par RailwayLoRaStar.gwRouter1.pppg$o[0].channel delay 5e-08s
attr mutable ""
attr unit s
par RailwayLoRaStar.gwRouter1.pppg$o[0].channel datarate 1e+09bps
attr mutable ""
attr unit bps
par RailwayLoRaStar.gwRouter1.pppg$o[0].channel ber 0
attr mutable ""
par RailwayLoRaStar.gwRouter1.pppg$o[0].channel per 0
attr mutable ""
par RailwayLoRaStar.gwRouter1.pppg$o[0].channel length 10m
attr unit m
par RailwayLoRaStar.gwRouter1.ethg$o[0].channel typename "\"inet.node.ethernet.Eth1G\""
par RailwayLoRaStar.gwRouter1.ethg$o[0].channel disabled false
attr mutable ""
par RailwayLoRaStar.gwRouter1.ethg$o[0].channel delay 5e-08s
attr mutable ""
attr unit s
par RailwayLoRaStar.gwRouter1.ethg$o[0].channel datarate 1e+09bps
attr mutable ""
attr unit bps
par RailwayLoRaStar.gwRouter1.ethg$o[0].channel ber 0
attr mutable ""
par RailwayLoRaStar.gwRouter1.ethg$o[0].channel per 0
attr mutable ""
par RailwayLoRaStar.gwRouter1.ethg$o[0].channel length 10m
attr unit m
par RailwayLoRaStar.loRaGW[1].ethg$o[0].channel typename "\"inet.node.ethernet.Eth1G\""
par RailwayLoRaStar.loRaGW[1].ethg$o[0].channel disabled false
attr mutable ""
par RailwayLoRaStar.loRaGW[1].ethg$o[0].channel delay 5e-08s
attr mutable ""
attr unit s
par RailwayLoRaStar.loRaGW[1].ethg$o[0].channel datarate 1e+09bps
attr mutable ""
attr unit bps
par RailwayLoRaStar.loRaGW[1].ethg$o[0].channel ber 0
attr mutable ""
par RailwayLoRaStar.loRaGW[1].ethg$o[0].channel per 0
attr mutable ""
par RailwayLoRaStar.loRaGW[1].ethg$o[0].channel length 10m
attr unit m
par RailwayLoRaStar.loRaNodes[0].interfaceTable typename "\"inet.networklayer.common.InterfaceTable\""
par RailwayLoRaStar.loRaNodes[0].interfaceTable displayAddresses false
par RailwayLoRaStar.loRaNodes[0].mobility typename "\"inet.mobility.static.StationaryMobility\""
par RailwayLoRaStar.loRaNodes[0].mobility subjectModule "\"^\""
par RailwayLoRaStar.loRaNodes[0].mobility coordinateSystemModule "\"\""
par RailwayLoRaStar.loRaNodes[0].mobility displayStringTextFormat "\"p: %p\\nv: %v\""
attr mutable ""
par RailwayLoRaStar.loRaNodes[0].mobility updateDisplayString true
par RailwayLoRaStar.loRaNodes[0].mobility constraintAreaMinX 0m
attr unit m
par RailwayLoRaStar.loRaNodes[0].mobility constraintAreaMinY -50m
attr unit m
par RailwayLoRaStar.loRaNodes[0].mobility constraintAreaMinZ "-inf m"
attr unit m
par RailwayLoRaStar.loRaNodes[0].mobility constraintAreaMaxX 2500m
attr unit m
par RailwayLoRaStar.loRaNodes[0].mobility constraintAreaMaxY 900m
attr unit m
par RailwayLoRaStar.loRaNodes[0].mobility constraintAreaMaxZ "inf m"
attr unit m
par RailwayLoRaStar.loRaNodes[0].mobility initialX 100m
attr unit m
par RailwayLoRaStar.loRaNodes[0].mobility initialY 650m
attr unit m
par RailwayLoRaStar.loRaNodes[0].mobility initialZ 0m
attr unit m
par RailwayLoRaStar.loRaNodes[0].mobility initialLatitude "nan deg"
attr unit deg
par RailwayLoRaStar.loRaNodes[0].mobility initialLongitude "nan deg"
attr unit deg
par RailwayLoRaStar.loRaNodes[0].mobility initialAltitude 0m
attr unit m
par RailwayLoRaStar.loRaNodes[0].mobility initialHeading 0deg
attr unit deg
par RailwayLoRaStar.loRaNodes[0].mobility initialElevation 0deg
attr unit deg
par RailwayLoRaStar.loRaNodes[0].mobility initialBank 0deg
attr unit deg
par RailwayLoRaStar.loRaNodes[0].mobility initFromDisplayString false
par RailwayLoRaStar.loRaNodes[0].mobility updateFromDisplayString true
par RailwayLoRaStar.loRaNodes[0].LoRaNic.radioIn.channel typename "\"ned.IdealChannel\""
par RailwayLoRaStar.loRaNodes[0].LoRaNic.mac.upperLayerOut.channel typename "\"ned.IdealChannel\""
par RailwayLoRaStar.loRaNodes[0].LoRaNic.upperLayerIn.channel typename "\"ned.IdealChannel\""
par RailwayLoRaStar.loRaNodes[0].LoRaNic.queue typename "\"inet.queueing.queue.DropTailQueue\""
par RailwayLoRaStar.loRaNodes[0].LoRaNic.queue displayStringTextFormat "\"contains %p pk (%l) pushed %u\\npulled %o removed %r dropped %d\""
par RailwayLoRaStar.loRaNodes[0].LoRaNic.queue packetCapacity -1
par RailwayLoRaStar.loRaNodes[0].LoRaNic.queue dataCapacity -1b
attr unit b
par RailwayLoRaStar.loRaNodes[0].LoRaNic.queue dropperClass "\"inet::queueing::PacketAtCollectionEndDropper\""
par RailwayLoRaStar.loRaNodes[0].LoRaNic.queue comparatorClass "\"\""
par RailwayLoRaStar.loRaNodes[0].LoRaNic.queue bufferModule "\"\""
scalar RailwayLoRaStar.loRaNodes[0].LoRaNic.queue queueLength:last 0
attr autoWarmupFilter false
attr interpolationmode sample-hold
attr recordingmode last
attr source "warmup(atomic(constant0(packetPushEnded) + count(packetPushStarted) - count(packetPulled) - count(packetRemoved) - count(packetDropped)))"
attr title "queue length, last"
attr unit pk
scalar RailwayLoRaStar.loRaNodes[0].LoRaNic.queue queueLength:max 0
attr autoWarmupFilter false
attr interpolationmode sample-hold
attr recordingmode max
attr source "warmup(atomic(constant0(packetPushEnded) + count(packetPushStarted) - count(packetPulled) - count(packetRemoved) - count(packetDropped)))"
attr title "queue length, max"
attr unit pk
scalar RailwayLoRaStar.loRaNodes[0].LoRaNic.queue queueLength:timeavg 0
attr autoWarmupFilter false
attr interpolationmode sample-hold
attr recordingmode timeavg
attr source "warmup(atomic(constant0(packetPushEnded) + count(packetPushStarted) - count(packetPulled) - count(packetRemoved) - count(packetDropped)))"
attr title "queue length, timeavg"
attr unit pk
scalar RailwayLoRaStar.loRaNodes[0].LoRaNic.queue queueBitLength:last 0
attr autoWarmupFilter false
attr interpolationmode sample-hold
attr recordingmode last
attr source "warmup(atomic(constant0(packetPushEnded) + sum(packetLength(packetPushStarted)) - sum(packetLength(packetPulled)) - sum(packetLength(packetRemoved)) - sum(packetLength(packetDropped))))"
attr title "queue bit length, last"
attr unit b
scalar RailwayLoRaStar.loRaNodes[0].LoRaNic.queue queueBitLength:max 0
attr autoWarmupFilter false
attr interpolationmode sample-hold
attr recordingmode max
attr source "warmup(atomic(constant0(packetPushEnded) + sum(packetLength(packetPushStarted)) - sum(packetLength(packetPulled)) - sum(packetLength(packetRemoved)) - sum(packetLength(packetDropped))))"
attr title "queue bit length, max"
attr unit b
scalar RailwayLoRaStar.loRaNodes[0].LoRaNic.queue queueBitLength:timeavg 0
attr autoWarmupFilter false
attr interpolationmode sample-hold
attr recordingmode timeavg
attr source "warmup(atomic(constant0(packetPushEnded) + sum(packetLength(packetPushStarted)) - sum(packetLength(packetPulled)) - sum(packetLength(packetRemoved)) - sum(packetLength(packetDropped))))"
attr title "queue bit length, timeavg"
attr unit b
statistic RailwayLoRaStar.loRaNodes[0].LoRaNic.queue queueingTime:histogram
field count 1
field mean 0
field stddev nan
field min 0
field max 0
field sum 0
field sqrsum 0
attr interpolationmode none
attr recordingmode histogram
attr source queueingTime(packetPulled)
attr title "queueing times"
attr unit s
bin	-inf	0
bin	-0.5	0
bin	-0.48	0
bin	-0.46	0
bin	-0.44	0
bin	-0.42	0
bin	-0.4	0
bin	-0.38	0
bin	-0.36	0
bin	-0.34	0
bin	-0.32	0
bin	-0.3	0
bin	-0.28	0
bin	-0.26	0
bin	-0.24	0
bin	-0.22	0
bin	-0.2	0
bin	-0.18	0
bin	-0.16	0
bin	-0.14	0
bin	-0.12	0
bin	-0.1	0
bin	-0.08	0
bin	-0.06	0
bin	-0.04	0
bin	-0.02	0
bin	0	1
bin	0.02	0
bin	0.04	0
bin	0.06	0
bin	0.08	0
bin	0.1	0
bin	0.12	0
bin	0.14	0
bin	0.16	0
bin	0.18	0
bin	0.2	0
bin	0.22	0
bin	0.24	0
bin	0.26	0
bin	0.28	0
bin	0.3	0
bin	0.32	0
bin	0.34	0
bin	0.36	0
bin	0.38	0
bin	0.4	0
bin	0.42	0
bin	0.44	0
bin	0.46	0
bin	0.48	0
bin	0.5	0
scalar RailwayLoRaStar.loRaNodes[0].LoRaNic.queue outgoingPackets:count 1
attr recordingmode count
attr source packetPulled
attr title "outgoing packets, count"
attr unit pk
scalar RailwayLoRaStar.loRaNodes[0].LoRaNic.queue outgoingPacketLengths:sum 80
attr interpolationmode none
attr recordingmode sum
attr source packetLength(packetPulled)
attr title "outgoing packet lengths, sum"
attr unit b
statistic RailwayLoRaStar.loRaNodes[0].LoRaNic.queue outgoingPacketLengths:histogram
field count 1
field mean 80
field stddev nan
field min 80
field max 80
field sum 80
field sqrsum 6400
attr interpolationmode none
attr recordingmode histogram
attr source packetLength(packetPulled)
attr title "outgoing packet lengths"
attr unit b
bin	-inf	0
bin	79	0
bin	80	1
bin	81	0
statistic RailwayLoRaStar.loRaNodes[0].LoRaNic.queue flowQueueingTime:histogram
field count 0
field mean -nan
field stddev nan
field min nan
field max nan
field sum 0
field sqrsum 0
attr interpolationmode none
attr recordingmode histogram
attr source queueingTime(demuxFlow(packetPulled))
attr title "flow queueing times"
attr unit s
bin	-inf	0
bin	0	0
bin	1	0
scalar RailwayLoRaStar.loRaNodes[0].LoRaNic.queue incomingPackets:count 1
attr recordingmode count
attr source packetPushStarted
attr title "incoming packets, count"
attr unit pk
scalar RailwayLoRaStar.loRaNodes[0].LoRaNic.queue incomingPacketLengths:sum 80
attr interpolationmode none
attr recordingmode sum
attr source packetLength(packetPushStarted)
attr title "incoming packet lengths, sum"
attr unit b
statistic RailwayLoRaStar.loRaNodes[0].LoRaNic.queue incomingPacketLengths:histogram
field count 1
field mean 80
field stddev nan
field min 80
field max 80
field sum 80
field sqrsum 6400
attr interpolationmode none
attr recordingmode histogram
attr source packetLength(packetPushStarted)
attr title "incoming packet lengths"
attr unit b
bin	-inf	0
bin	79	0
bin	80	1
bin	81	0
scalar RailwayLoRaStar.loRaNodes[0].LoRaNic.queue droppedPacketsQueueOverflow:count 0
attr interpolationmode none
attr recordingmode count
attr source packetDropReasonIsQueueOverflow(packetDropped)
attr title "dropped packets: queue overflow, count"
attr unit pk
scalar RailwayLoRaStar.loRaNodes[0].LoRaNic.queue droppedPacketLengthsQueueOverflow:sum 0
attr interpolationmode none
attr recordingmode sum
attr source packetLength(packetDropReasonIsQueueOverflow(packetDropped))
attr title "dropped packet lengths: queue overflow, sum"
attr unit b
par RailwayLoRaStar.loRaNodes[0].LoRaNic.mac typename "\"flora.LoRa.LoRaMac\""
par RailwayLoRaStar.loRaNodes[0].LoRaNic.mac interfaceTableModule "\"RailwayLoRaStar.loRaNodes[0].interfaceTable\""
par RailwayLoRaStar.loRaNodes[0].LoRaNic.mac radioModule "\"^.radio\""
par RailwayLoRaStar.loRaNodes[0].LoRaNic.mac address "\"0A-AA-00-00-00-01\""
attr mutable ""
par RailwayLoRaStar.loRaNodes[0].LoRaNic.mac fcsMode "\"declared\""
attr enum declared,computed
par RailwayLoRaStar.loRaNodes[0].LoRaNic.mac useAck true
par RailwayLoRaStar.loRaNodes[0].LoRaNic.mac bitrate 250bps
attr unit bps
par RailwayLoRaStar.loRaNodes[0].LoRaNic.mac headerLength 17B
attr unit B
par RailwayLoRaStar.loRaNodes[0].LoRaNic.mac ackLength 14B
attr unit B
par RailwayLoRaStar.loRaNodes[0].LoRaNic.mac sifsTime 1e-05s
attr unit s
par RailwayLoRaStar.loRaNodes[0].LoRaNic.mac slotTime 2e-05s
attr unit s
par RailwayLoRaStar.loRaNodes[0].LoRaNic.mac difsTime 5e-05s
attr unit s
par RailwayLoRaStar.loRaNodes[0].LoRaNic.mac ackTimeout 0.44803s
attr unit s
par RailwayLoRaStar.loRaNodes[0].LoRaNic.mac mtu 1500
par RailwayLoRaStar.loRaNodes[0].LoRaNic.mac cwMin 31
par RailwayLoRaStar.loRaNodes[0].LoRaNic.mac cwMax 1023
par RailwayLoRaStar.loRaNodes[0].LoRaNic.mac cwMulticast 31
par RailwayLoRaStar.loRaNodes[0].LoRaNic.mac retryLimit 7
scalar RailwayLoRaStar.loRaNodes[0].LoRaNic.mac numRetry 0
scalar RailwayLoRaStar.loRaNodes[0].LoRaNic.mac numSentWithoutRetry 0
scalar RailwayLoRaStar.loRaNodes[0].LoRaNic.mac numGivenUp 0
scalar RailwayLoRaStar.loRaNodes[0].LoRaNic.mac numSent 1
scalar RailwayLoRaStar.loRaNodes[0].LoRaNic.mac numReceived 0
scalar RailwayLoRaStar.loRaNodes[0].LoRaNic.mac numSentBroadcast 0
scalar RailwayLoRaStar.loRaNodes[0].LoRaNic.mac numReceivedBroadcast 0
scalar RailwayLoRaStar.loRaNodes[0].LoRaNic.mac packetDropIncorrectlyReceived:count 0
attr interpolationmode none
attr recordingmode count
attr source packetDropReasonIsIncorrectlyReceived(packetDropped)
attr title "packet drop: incorrectly received, count"
scalar RailwayLoRaStar.loRaNodes[0].LoRaNic.mac packetDropIncorrectlyReceived:sum(packetBytes) 0
attr interpolationmode none
attr recordingmode sum(packetBytes)
attr source packetDropReasonIsIncorrectlyReceived(packetDropped)
attr title "packet drop: incorrectly received, sum(packetBytes)"
scalar RailwayLoRaStar.loRaNodes[0].LoRaNic.mac packetDropNotAddressedToUs:count 0
attr interpolationmode none
attr recordingmode count
attr source packetDropReasonIsNotAddressedToUs(packetDropped)
attr title "packet drop: not addressed to us, count"
scalar RailwayLoRaStar.loRaNodes[0].LoRaNic.mac packetDropNotAddressedToUs:sum(packetBytes) 0
attr interpolationmode none
attr recordingmode sum(packetBytes)
attr source packetDropReasonIsNotAddressedToUs(packetDropped)
attr title "packet drop: not addressed to us, sum(packetBytes)"
scalar RailwayLoRaStar.loRaNodes[0].LoRaNic.mac packetDropQueueOverflow:count 0
attr interpolationmode none
attr recordingmode count
attr source packetDropReasonIsQueueOverflow(packetDropped)
attr title "packet drop: queue overflow, count"
scalar RailwayLoRaStar.loRaNodes[0].LoRaNic.mac packetDropQueueOverflow:sum(packetBytes) 0
attr interpolationmode none
attr recordingmode sum(packetBytes)
attr source packetDropReasonIsQueueOverflow(packetDropped)
attr title "packet drop: queue overflow, sum(packetBytes)"
scalar RailwayLoRaStar.loRaNodes[0].LoRaNic.mac packetDropRetryLimitReached:count 0
attr interpolationmode none
attr recordingmode count
attr source packetDropReasonIsRetryLimitReached(packetDropped)
attr title "packet drop: retry limit reached, count"
scalar RailwayLoRaStar.loRaNodes[0].LoRaNic.mac packetDropRetryLimitReached:sum(packetBytes) 0
attr interpolationmode none
attr recordingmode sum(packetBytes)
attr source packetDropReasonIsRetryLimitReached(packetDropped)
attr title "packet drop: retry limit reached, sum(packetBytes)"
scalar RailwayLoRaStar.loRaNodes[0].LoRaNic.mac linkBroken:count 0
attr interpolationmode none
attr recordingmode count
attr source linkBroken
attr title "link break, count"
par RailwayLoRaStar.loRaNodes[0].LoRaNic.radio.antenna typename "\"inet.physicallayer.wireless.common.antenna.IsotropicAntenna\""
par RailwayLoRaStar.loRaNodes[0].LoRaNic.radio.antenna mobilityModule "\"^.^.^.mobility\""
par RailwayLoRaStar.loRaNodes[0].LoRaNic.radio.antenna numAntennas 1
par RailwayLoRaStar.loRaNodes[0].LoRaNic.radio.transmitter typename "\"flora.LoRaPhy.LoRaTransmitter\""
par RailwayLoRaStar.loRaNodes[0].LoRaNic.radio.transmitter preambleDuration 0.001s
attr unit s
par RailwayLoRaStar.loRaNodes[0].LoRaNic.radio.transmitter headerLength 0b
attr unit b
par RailwayLoRaStar.loRaNodes[0].LoRaNic.radio.transmitter bitrate 250000bps
attr unit bps
par RailwayLoRaStar.loRaNodes[0].LoRaNic.radio.transmitter power 0.025118W
attr unit W
par RailwayLoRaStar.loRaNodes[0].LoRaNic.radio.transmitter centerFrequency 8.68e+08Hz
attr unit Hz
par RailwayLoRaStar.loRaNodes[0].LoRaNic.radio.transmitter bandwidth 250000Hz
attr unit Hz
par RailwayLoRaStar.loRaNodes[0].LoRaNic.radio.transmitter modulation "\"LoRaModulation\""
scalar RailwayLoRaStar.loRaNodes[0].LoRaNic.radio.transmitter LoRaTransmissionCreated:count 1
attr recordingmode count
attr source LoRaTransmissionCreated
par RailwayLoRaStar.loRaNodes[0].LoRaNic.radio.receiver typename "\"flora.LoRaPhy.LoRaReceiver\""
par RailwayLoRaStar.loRaNodes[0].LoRaNic.radio.receiver snirThreshold -8dB
attr unit dB
par RailwayLoRaStar.loRaNodes[0].LoRaNic.radio.receiver snirThresholdMode "\"min\""
attr unit min,mean
par RailwayLoRaStar.loRaNodes[0].LoRaNic.radio.receiver energyDetection -90dBm
attr unit dBm
par RailwayLoRaStar.loRaNodes[0].LoRaNic.radio.receiver sensitivity -137dBm
attr unit dBm
par RailwayLoRaStar.loRaNodes[0].LoRaNic.radio.receiver centerFrequency 8.68e+08Hz
attr unit Hz
par RailwayLoRaStar.loRaNodes[0].LoRaNic.radio.receiver bandwidth 250000Hz
attr unit Hz
par RailwayLoRaStar.loRaNodes[0].LoRaNic.radio.receiver modulation "\"BPSK\""
par RailwayLoRaStar.loRaNodes[0].LoRaNic.radio.receiver alohaChannelModel false
scalar RailwayLoRaStar.loRaNodes[0].LoRaNic.radio.receiver numCollisions 0
scalar RailwayLoRaStar.loRaNodes[0].LoRaNic.radio.receiver rcvBelowSensitivity 0
scalar RailwayLoRaStar.loRaNodes[0].LoRaNic.radio.receiver LoRaReceptionCollision:count 0
attr recordingmode count
attr source LoRaReceptionCollision
par RailwayLoRaStar.loRaNodes[0].LoRaNic.radio.energyConsumer typename "\"flora.LoRaEnergyModules.LoRaEnergyConsumer\""
par RailwayLoRaStar.loRaNodes[0].LoRaNic.radio.energyConsumer energySourceModule "\"^.IdealEpEnergyStorage\""
par RailwayLoRaStar.loRaNodes[0].LoRaNic.radio.energyConsumer offPowerConsumption 0W
attr unit W
par RailwayLoRaStar.loRaNodes[0].LoRaNic.radio.energyConsumer sleepPowerConsumption 0.001W
attr unit W
par RailwayLoRaStar.loRaNodes[0].LoRaNic.radio.energyConsumer switchingPowerConsumption 0.001W
attr unit W
par RailwayLoRaStar.loRaNodes[0].LoRaNic.radio.energyConsumer receiverIdlePowerConsumption 0.002W
attr unit W
par RailwayLoRaStar.loRaNodes[0].LoRaNic.radio.energyConsumer receiverBusyPowerConsumption 0.005W
attr unit W
par RailwayLoRaStar.loRaNodes[0].LoRaNic.radio.energyConsumer receiverReceivingPowerConsumption 0.01W
attr unit W
par RailwayLoRaStar.loRaNodes[0].LoRaNic.radio.energyConsumer receiverReceivingPreamblePowerConsumption 0.01W
attr unit W
par RailwayLoRaStar.loRaNodes[0].LoRaNic.radio.energyConsumer receiverReceivingHeaderPowerConsumption 0.01W
attr unit W
par RailwayLoRaStar.loRaNodes[0].LoRaNic.radio.energyConsumer receiverReceivingDataPowerConsumption 0.01W
attr unit W
par RailwayLoRaStar.loRaNodes[0].LoRaNic.radio.energyConsumer transmitterIdlePowerConsumption 0.002W
attr unit W
par RailwayLoRaStar.loRaNodes[0].LoRaNic.radio.energyConsumer transmitterTransmittingPowerConsumption 0.1W
attr unit W
par RailwayLoRaStar.loRaNodes[0].LoRaNic.radio.energyConsumer transmitterTransmittingPreamblePowerConsumption 0.1W
attr unit W
par RailwayLoRaStar.loRaNodes[0].LoRaNic.radio.energyConsumer transmitterTransmittingHeaderPowerConsumption 0.1W
attr unit W
par RailwayLoRaStar.loRaNodes[0].LoRaNic.radio.energyConsumer transmitterTransmittingDataPowerConsumption 0.1W
attr unit W
par RailwayLoRaStar.loRaNodes[0].LoRaNic.radio.energyConsumer configFile "<root>...</root> at /home/kfw/Desktop/omnetpp6-workspace/flora/simulations//energyConsumptionParameters.xml:2"
scalar RailwayLoRaStar.loRaNodes[0].LoRaNic.radio.energyConsumer totalEnergyConsumed 0.33709762287736
par RailwayLoRaStar.loRaNodes[0].LoRaNic.radio.IdealEpEnergyStorage typename "\"inet.power.storage.IdealEpEnergyStorage\""
scalar RailwayLoRaStar.loRaNodes[0].LoRaNic.radio.IdealEpEnergyStorage residualEnergyCapacity:last -0.33709762287736
attr interpolationmode linear
attr recordingmode last
attr source residualEnergyCapacityChanged
attr title "Residual energy capacity, last"
par RailwayLoRaStar.loRaNodes[0].LoRaNic.radio typename "\"flora.LoRa.LoRaRadio\""
par RailwayLoRaStar.loRaNodes[0].LoRaNic.radio radioMediumModule "\"LoRaMedium\""
par RailwayLoRaStar.loRaNodes[0].LoRaNic.radio energySourceModule "\"^.IdealEpEnergyStorage\""
par RailwayLoRaStar.loRaNodes[0].LoRaNic.radio initialRadioMode "\"off\""
attr enum off,sleep,receiver,transmitter,transceiver
par RailwayLoRaStar.loRaNodes[0].LoRaNic.radio switchingTimes "\"ms 0 0 0 0 0 0 0 0 0 0 0 0 0 0 0 0 0 0 0 0 0 0 0 0 0\""
par RailwayLoRaStar.loRaNodes[0].LoRaNic.radio sendRawBytes false
par RailwayLoRaStar.loRaNodes[0].LoRaNic.radio separateTransmissionParts false
par RailwayLoRaStar.loRaNodes[0].LoRaNic.radio separateReceptionParts false
par RailwayLoRaStar.loRaNodes[0].LoRaNic.radio displayCommunicationRange false
par RailwayLoRaStar.loRaNodes[0].LoRaNic.radio displayInterferenceRange false
par RailwayLoRaStar.loRaNodes[0].LoRaNic.radio centerFrequency 8.68e+08Hz
attr unit Hz
par RailwayLoRaStar.loRaNodes[0].LoRaNic.radio bandwidth 250000Hz
attr unit Hz
par RailwayLoRaStar.loRaNodes[0].LoRaNic.radio iAmGateway false
scalar RailwayLoRaStar.loRaNodes[0].LoRaNic.radio radioMode:count 11
attr interpolationmode sample-hold
attr recordingmode count
attr source radioModeChanged
attr title "Radio mode, count"
scalar RailwayLoRaStar.loRaNodes[0].LoRaNic.radio receptionState:count 8
attr interpolationmode sample-hold
attr recordingmode count
attr source receptionStateChanged
attr title "Radio reception state, count"
scalar RailwayLoRaStar.loRaNodes[0].LoRaNic.radio transmissionState:count 4
attr interpolationmode sample-hold
attr recordingmode count
attr source transmissionStateChanged
attr title "Radio transmission state, count"
statistic RailwayLoRaStar.loRaNodes[0].LoRaNic.radio minSnir:histogram
field count 1
field mean 0.59913707114519
field stddev nan
field min 0.59913707114519
field max 0.59913707114519
field sum 0.59913707114519
field sqrsum 0.35896523002044
attr recordingmode histogram
attr source minimumSnir(packetSentToUpper)
attr title "Min SNIR"
bin	-inf	0
bin	0.08	0
bin	0.1	0
bin	0.12	0
bin	0.14	0
bin	0.16	0
bin	0.18	0
bin	0.2	0
bin	0.22	0
bin	0.24	0
bin	0.26	0
bin	0.28	0
bin	0.3	0
bin	0.32	0
bin	0.34	0
bin	0.36	0
bin	0.38	0
bin	0.4	0
bin	0.42	0
bin	0.44	0
bin	0.46	0
bin	0.48	0
bin	0.5	0
bin	0.52	0
bin	0.54	0
bin	0.56	0
bin	0.58	1
bin	0.6	0
bin	0.62	0
bin	0.64	0
bin	0.66	0
bin	0.68	0
bin	0.7	0
bin	0.72	0
bin	0.74	0
bin	0.76	0
bin	0.78	0
bin	0.8	0
bin	0.82	0
bin	0.84	0
bin	0.86	0
bin	0.88	0
bin	0.9	0
bin	0.92	0
bin	0.94	0
bin	0.96	0
bin	0.98	0
bin	1	0
bin	1.02	0
bin	1.04	0
bin	1.06	0
bin	1.08	0
bin	1.1	0
statistic RailwayLoRaStar.loRaNodes[0].LoRaNic.radio packetErrorRate:histogram
field count 1
field mean 0
field stddev nan
field min 0
field max 0
field sum 0
field sqrsum 0
attr recordingmode histogram
attr source packetErrorRate(packetSentToUpper)
attr title "Packet error rate"
bin	-inf	0
bin	-0.5	0
bin	-0.48	0
bin	-0.46	0
bin	-0.44	0
bin	-0.42	0
bin	-0.4	0
bin	-0.38	0
bin	-0.36	0
bin	-0.34	0
bin	-0.32	0
bin	-0.3	0
bin	-0.28	0
bin	-0.26	0
bin	-0.24	0
bin	-0.22	0
bin	-0.2	0
bin	-0.18	0
bin	-0.16	0
bin	-0.14	0
bin	-0.12	0
bin	-0.1	0
bin	-0.08	0
bin	-0.06	0
bin	-0.04	0
bin	-0.02	0
bin	0	1
bin	0.02	0
bin	0.04	0
bin	0.06	0
bin	0.08	0
bin	0.1	0
bin	0.12	0
bin	0.14	0
bin	0.16	0
bin	0.18	0
bin	0.2	0
bin	0.22	0
bin	0.24	0
bin	0.26	0
bin	0.28	0
bin	0.3	0
bin	0.32	0
bin	0.34	0
bin	0.36	0
bin	0.38	0
bin	0.4	0
bin	0.42	0
bin	0.44	0
bin	0.46	0
bin	0.48	0
bin	0.5	0
statistic RailwayLoRaStar.loRaNodes[0].LoRaNic.radio bitErrorRate:histogram
field count 1
field mean 0
field stddev nan
field min 0
field max 0
field sum 0
field sqrsum 0
attr recordingmode histogram
attr source bitErrorRate(packetSentToUpper)
attr title "Bit error rate"
bin	-inf	0
bin	-0.5	0
bin	-0.48	0
bin	-0.46	0
bin	-0.44	0
bin	-0.42	0
bin	-0.4	0
bin	-0.38	0
bin	-0.36	0
bin	-0.34	0
bin	-0.32	0
bin	-0.3	0
bin	-0.28	0
bin	-0.26	0
bin	-0.24	0
bin	-0.22	0
bin	-0.2	0
bin	-0.18	0
bin	-0.16	0
bin	-0.14	0
bin	-0.12	0
bin	-0.1	0
bin	-0.08	0
bin	-0.06	0
bin	-0.04	0
bin	-0.02	0
bin	0	1
bin	0.02	0
bin	0.04	0
bin	0.06	0
bin	0.08	0
bin	0.1	0
bin	0.12	0
bin	0.14	0
bin	0.16	0
bin	0.18	0
bin	0.2	0
bin	0.22	0
bin	0.24	0
bin	0.26	0
bin	0.28	0
bin	0.3	0
bin	0.32	0
bin	0.34	0
bin	0.36	0
bin	0.38	0
bin	0.4	0
bin	0.42	0
bin	0.44	0
bin	0.46	0
bin	0.48	0
bin	0.5	0
statistic RailwayLoRaStar.loRaNodes[0].LoRaNic.radio symbolErrorRate:histogram
field count 1
field mean 0
field stddev nan
field min 0
field max 0
field sum 0
field sqrsum 0
attr recordingmode histogram
attr source symbolErrorRate(packetSentToUpper)
attr title "Symbol error rate"
bin	-inf	0
bin	-0.5	0
bin	-0.48	0
bin	-0.46	0
bin	-0.44	0
bin	-0.42	0
bin	-0.4	0
bin	-0.38	0
bin	-0.36	0
bin	-0.34	0
bin	-0.32	0
bin	-0.3	0
bin	-0.28	0
bin	-0.26	0
bin	-0.24	0
bin	-0.22	0
bin	-0.2	0
bin	-0.18	0
bin	-0.16	0
bin	-0.14	0
bin	-0.12	0
bin	-0.1	0
bin	-0.08	0
bin	-0.06	0
bin	-0.04	0
bin	-0.02	0
bin	0	1
bin	0.02	0
bin	0.04	0
bin	0.06	0
bin	0.08	0
bin	0.1	0
bin	0.12	0
bin	0.14	0
bin	0.16	0
bin	0.18	0
bin	0.2	0
bin	0.22	0
bin	0.24	0
bin	0.26	0
bin	0.28	0
bin	0.3	0
bin	0.32	0
bin	0.34	0
bin	0.36	0
bin	0.38	0
bin	0.4	0
bin	0.42	0
bin	0.44	0
bin	0.46	0
bin	0.48	0
bin	0.5	0
par RailwayLoRaStar.loRaNodes[0].LoRaNic typename "\"flora.LoRa.LoRaNic\""
par RailwayLoRaStar.loRaNodes[0].LoRaNic displayStringTextFormat "\"%a (%i)\\n%m\""
par RailwayLoRaStar.loRaNodes[0].LoRaNic recordPcap false
par RailwayLoRaStar.loRaNodes[0].LoRaNic numPcapRecorders 0
par RailwayLoRaStar.loRaNodes[0].LoRaNic interfaceTableModule "\"RailwayLoRaStar.loRaNodes[0].interfaceTable\""
par RailwayLoRaStar.loRaNodes[0].LoRaNic energySourceModule "\"^.IdealEpEnergyStorage\""
par RailwayLoRaStar.loRaNodes[0].LoRaNic protocol "\"\""
scalar RailwayLoRaStar.loRaNodes[0].LoRaNic packetDropInterfaceDown:count 0
attr interpolationmode none
attr recordingmode count
attr source packetDropReasonIsInterfaceDown(packetDropped)
attr title "packet drops: interface down, count"
scalar RailwayLoRaStar.loRaNodes[0].LoRaNic packetDropInterfaceDown:sum(packetBytes) 0
attr interpolationmode none
attr recordingmode sum(packetBytes)
attr source packetDropReasonIsInterfaceDown(packetDropped)
attr title "packet drops: interface down, sum(packetBytes)"
scalar RailwayLoRaStar.loRaNodes[0].LoRaNic packetDropNoCarrier:count 0
attr interpolationmode none
attr recordingmode count
attr source packetDropReasonIsNoCarrier(packetDropped)
attr title "packet drops: no carrier, count"
scalar RailwayLoRaStar.loRaNodes[0].LoRaNic packetDropNoCarrier:sum(packetBytes) 0
attr interpolationmode none
attr recordingmode sum(packetBytes)
attr source packetDropReasonIsNoCarrier(packetDropped)
attr title "packet drops: no carrier, sum(packetBytes)"
par RailwayLoRaStar.loRaNodes[0].app[0] typename "\"flora.LoRaApp.SimpleLoRaApp\""
par RailwayLoRaStar.loRaNodes[0].app[0] numberOfPacketsToSend 1
par RailwayLoRaStar.loRaNodes[0].app[0] timeToFirstPacket "uniform(1s, 10s)"
attr unit s
par RailwayLoRaStar.loRaNodes[0].app[0] timeToNextPacket exponential(60s)
attr unit s
par RailwayLoRaStar.loRaNodes[0].app[0] initialLoRaTP 14dBm
attr unit dBm
par RailwayLoRaStar.loRaNodes[0].app[0] initialLoRaCF 8.68e+08Hz
attr unit Hz
par RailwayLoRaStar.loRaNodes[0].app[0] initialLoRaSF 12
par RailwayLoRaStar.loRaNodes[0].app[0] initialLoRaBW 125000Hz
attr unit Hz
par RailwayLoRaStar.loRaNodes[0].app[0] initialLoRaCR 4
par RailwayLoRaStar.loRaNodes[0].app[0] initialUseHeader true
par RailwayLoRaStar.loRaNodes[0].app[0] evaluateADRinNode true
par RailwayLoRaStar.loRaNodes[0].app[0] dataSize 10B
attr unit B
scalar RailwayLoRaStar.loRaNodes[0].app[0] positionX 100
scalar RailwayLoRaStar.loRaNodes[0].app[0] positionY 650
scalar RailwayLoRaStar.loRaNodes[0].app[0] finalTP 14
scalar RailwayLoRaStar.loRaNodes[0].app[0] finalSF 12
scalar RailwayLoRaStar.loRaNodes[0].app[0] sentPackets 1
scalar RailwayLoRaStar.loRaNodes[0].app[0] receivedADRCommands 0
scalar RailwayLoRaStar.loRaNodes[0].app[0] LoRa_AppPacketSent:count 1
attr recordingmode count
attr source LoRa_AppPacketSent
par RailwayLoRaStar.loRaNodes[0] typename "\"flora.LoraNode.LoRaNode\""
par RailwayLoRaStar.loRaNodes[0] numApps 1
par RailwayLoRaStar.loRaNodes[0] deploymentType "\"\""
par RailwayLoRaStar.loRaNodes[0] maxGatewayDistance 320
par RailwayLoRaStar.loRaNodes[0] gatewayX 320
par RailwayLoRaStar.loRaNodes[0] gatewayY 320
par RailwayLoRaStar.loRaNodes[1].interfaceTable typename "\"inet.networklayer.common.InterfaceTable\""
par RailwayLoRaStar.loRaNodes[1].interfaceTable displayAddresses false
par RailwayLoRaStar.loRaNodes[1].mobility typename "\"inet.mobility.static.StationaryMobility\""
par RailwayLoRaStar.loRaNodes[1].mobility subjectModule "\"^\""
par RailwayLoRaStar.loRaNodes[1].mobility coordinateSystemModule "\"\""
par RailwayLoRaStar.loRaNodes[1].mobility displayStringTextFormat "\"p: %p\\nv: %v\""
attr mutable ""
par RailwayLoRaStar.loRaNodes[1].mobility updateDisplayString true
par RailwayLoRaStar.loRaNodes[1].mobility constraintAreaMinX 0m
attr unit m
par RailwayLoRaStar.loRaNodes[1].mobility constraintAreaMinY -50m
attr unit m
par RailwayLoRaStar.loRaNodes[1].mobility constraintAreaMinZ "-inf m"
attr unit m
par RailwayLoRaStar.loRaNodes[1].mobility constraintAreaMaxX 2500m
attr unit m
par RailwayLoRaStar.loRaNodes[1].mobility constraintAreaMaxY 900m
attr unit m
par RailwayLoRaStar.loRaNodes[1].mobility constraintAreaMaxZ "inf m"
attr unit m
par RailwayLoRaStar.loRaNodes[1].mobility initialX 200m
attr unit m
par RailwayLoRaStar.loRaNodes[1].mobility initialY 550m
attr unit m
par RailwayLoRaStar.loRaNodes[1].mobility initialZ 0m
attr unit m
par RailwayLoRaStar.loRaNodes[1].mobility initialLatitude "nan deg"
attr unit deg
par RailwayLoRaStar.loRaNodes[1].mobility initialLongitude "nan deg"
attr unit deg
par RailwayLoRaStar.loRaNodes[1].mobility initialAltitude 0m
attr unit m
par RailwayLoRaStar.loRaNodes[1].mobility initialHeading 0deg
attr unit deg
par RailwayLoRaStar.loRaNodes[1].mobility initialElevation 0deg
attr unit deg
par RailwayLoRaStar.loRaNodes[1].mobility initialBank 0deg
attr unit deg
par RailwayLoRaStar.loRaNodes[1].mobility initFromDisplayString false
par RailwayLoRaStar.loRaNodes[1].mobility updateFromDisplayString true
par RailwayLoRaStar.loRaNodes[1].LoRaNic.radioIn.channel typename "\"ned.IdealChannel\""
par RailwayLoRaStar.loRaNodes[1].LoRaNic.mac.upperLayerOut.channel typename "\"ned.IdealChannel\""
par RailwayLoRaStar.loRaNodes[1].LoRaNic.upperLayerIn.channel typename "\"ned.IdealChannel\""
par RailwayLoRaStar.loRaNodes[1].LoRaNic.queue typename "\"inet.queueing.queue.DropTailQueue\""
par RailwayLoRaStar.loRaNodes[1].LoRaNic.queue displayStringTextFormat "\"contains %p pk (%l) pushed %u\\npulled %o removed %r dropped %d\""
par RailwayLoRaStar.loRaNodes[1].LoRaNic.queue packetCapacity -1
par RailwayLoRaStar.loRaNodes[1].LoRaNic.queue dataCapacity -1b
attr unit b
par RailwayLoRaStar.loRaNodes[1].LoRaNic.queue dropperClass "\"inet::queueing::PacketAtCollectionEndDropper\""
par RailwayLoRaStar.loRaNodes[1].LoRaNic.queue comparatorClass "\"\""
par RailwayLoRaStar.loRaNodes[1].LoRaNic.queue bufferModule "\"\""
scalar RailwayLoRaStar.loRaNodes[1].LoRaNic.queue queueLength:last 0
attr autoWarmupFilter false
attr interpolationmode sample-hold
attr recordingmode last
attr source "warmup(atomic(constant0(packetPushEnded) + count(packetPushStarted) - count(packetPulled) - count(packetRemoved) - count(packetDropped)))"
attr title "queue length, last"
attr unit pk
scalar RailwayLoRaStar.loRaNodes[1].LoRaNic.queue queueLength:max 0
attr autoWarmupFilter false
attr interpolationmode sample-hold
attr recordingmode max
attr source "warmup(atomic(constant0(packetPushEnded) + count(packetPushStarted) - count(packetPulled) - count(packetRemoved) - count(packetDropped)))"
attr title "queue length, max"
attr unit pk
scalar RailwayLoRaStar.loRaNodes[1].LoRaNic.queue queueLength:timeavg 0
attr autoWarmupFilter false
attr interpolationmode sample-hold
attr recordingmode timeavg
attr source "warmup(atomic(constant0(packetPushEnded) + count(packetPushStarted) - count(packetPulled) - count(packetRemoved) - count(packetDropped)))"
attr title "queue length, timeavg"
attr unit pk
scalar RailwayLoRaStar.loRaNodes[1].LoRaNic.queue queueBitLength:last 0
attr autoWarmupFilter false
attr interpolationmode sample-hold
attr recordingmode last
attr source "warmup(atomic(constant0(packetPushEnded) + sum(packetLength(packetPushStarted)) - sum(packetLength(packetPulled)) - sum(packetLength(packetRemoved)) - sum(packetLength(packetDropped))))"
attr title "queue bit length, last"
attr unit b
scalar RailwayLoRaStar.loRaNodes[1].LoRaNic.queue queueBitLength:max 0
attr autoWarmupFilter false
attr interpolationmode sample-hold
attr recordingmode max
attr source "warmup(atomic(constant0(packetPushEnded) + sum(packetLength(packetPushStarted)) - sum(packetLength(packetPulled)) - sum(packetLength(packetRemoved)) - sum(packetLength(packetDropped))))"
attr title "queue bit length, max"
attr unit b
scalar RailwayLoRaStar.loRaNodes[1].LoRaNic.queue queueBitLength:timeavg 0
attr autoWarmupFilter false
attr interpolationmode sample-hold
attr recordingmode timeavg
attr source "warmup(atomic(constant0(packetPushEnded) + sum(packetLength(packetPushStarted)) - sum(packetLength(packetPulled)) - sum(packetLength(packetRemoved)) - sum(packetLength(packetDropped))))"
attr title "queue bit length, timeavg"
attr unit b
statistic RailwayLoRaStar.loRaNodes[1].LoRaNic.queue queueingTime:histogram
field count 1
field mean 0
field stddev nan
field min 0
field max 0
field sum 0
field sqrsum 0
attr interpolationmode none
attr recordingmode histogram
attr source queueingTime(packetPulled)
attr title "queueing times"
attr unit s
bin	-inf	0
bin	-0.5	0
bin	-0.48	0
bin	-0.46	0
bin	-0.44	0
bin	-0.42	0
bin	-0.4	0
bin	-0.38	0
bin	-0.36	0
bin	-0.34	0
bin	-0.32	0
bin	-0.3	0
bin	-0.28	0
bin	-0.26	0
bin	-0.24	0
bin	-0.22	0
bin	-0.2	0
bin	-0.18	0
bin	-0.16	0
bin	-0.14	0
bin	-0.12	0
bin	-0.1	0
bin	-0.08	0
bin	-0.06	0
bin	-0.04	0
bin	-0.02	0
bin	0	1
bin	0.02	0
bin	0.04	0
bin	0.06	0
bin	0.08	0
bin	0.1	0
bin	0.12	0
bin	0.14	0
bin	0.16	0
bin	0.18	0
bin	0.2	0
bin	0.22	0
bin	0.24	0
bin	0.26	0
bin	0.28	0
bin	0.3	0
bin	0.32	0
bin	0.34	0
bin	0.36	0
bin	0.38	0
bin	0.4	0
bin	0.42	0
bin	0.44	0
bin	0.46	0
bin	0.48	0
bin	0.5	0
scalar RailwayLoRaStar.loRaNodes[1].LoRaNic.queue outgoingPackets:count 1
attr recordingmode count
attr source packetPulled
attr title "outgoing packets, count"
attr unit pk
scalar RailwayLoRaStar.loRaNodes[1].LoRaNic.queue outgoingPacketLengths:sum 80
attr interpolationmode none
attr recordingmode sum
attr source packetLength(packetPulled)
attr title "outgoing packet lengths, sum"
attr unit b
statistic RailwayLoRaStar.loRaNodes[1].LoRaNic.queue outgoingPacketLengths:histogram
field count 1
field mean 80
field stddev nan
field min 80
field max 80
field sum 80
field sqrsum 6400
attr interpolationmode none
attr recordingmode histogram
attr source packetLength(packetPulled)
attr title "outgoing packet lengths"
attr unit b
bin	-inf	0
bin	79	0
bin	80	1
bin	81	0
statistic RailwayLoRaStar.loRaNodes[1].LoRaNic.queue flowQueueingTime:histogram
field count 0
field mean -nan
field stddev nan
field min nan
field max nan
field sum 0
field sqrsum 0
attr interpolationmode none
attr recordingmode histogram
attr source queueingTime(demuxFlow(packetPulled))
attr title "flow queueing times"
attr unit s
bin	-inf	0
bin	0	0
bin	1	0
scalar RailwayLoRaStar.loRaNodes[1].LoRaNic.queue incomingPackets:count 1
attr recordingmode count
attr source packetPushStarted
attr title "incoming packets, count"
attr unit pk
scalar RailwayLoRaStar.loRaNodes[1].LoRaNic.queue incomingPacketLengths:sum 80
attr interpolationmode none
attr recordingmode sum
attr source packetLength(packetPushStarted)
attr title "incoming packet lengths, sum"
attr unit b
statistic RailwayLoRaStar.loRaNodes[1].LoRaNic.queue incomingPacketLengths:histogram
field count 1
field mean 80
field stddev nan
field min 80
field max 80
field sum 80
field sqrsum 6400
attr interpolationmode none
attr recordingmode histogram
attr source packetLength(packetPushStarted)
attr title "incoming packet lengths"
attr unit b
bin	-inf	0
bin	79	0
bin	80	1
bin	81	0
scalar RailwayLoRaStar.loRaNodes[1].LoRaNic.queue droppedPacketsQueueOverflow:count 0
attr interpolationmode none
attr recordingmode count
attr source packetDropReasonIsQueueOverflow(packetDropped)
attr title "dropped packets: queue overflow, count"
attr unit pk
scalar RailwayLoRaStar.loRaNodes[1].LoRaNic.queue droppedPacketLengthsQueueOverflow:sum 0
attr interpolationmode none
attr recordingmode sum
attr source packetLength(packetDropReasonIsQueueOverflow(packetDropped))
attr title "dropped packet lengths: queue overflow, sum"
attr unit b
par RailwayLoRaStar.loRaNodes[1].LoRaNic.mac typename "\"flora.LoRa.LoRaMac\""
par RailwayLoRaStar.loRaNodes[1].LoRaNic.mac interfaceTableModule "\"RailwayLoRaStar.loRaNodes[1].interfaceTable\""
par RailwayLoRaStar.loRaNodes[1].LoRaNic.mac radioModule "\"^.radio\""
par RailwayLoRaStar.loRaNodes[1].LoRaNic.mac address "\"0A-AA-00-00-00-02\""
attr mutable ""
par RailwayLoRaStar.loRaNodes[1].LoRaNic.mac fcsMode "\"declared\""
attr enum declared,computed
par RailwayLoRaStar.loRaNodes[1].LoRaNic.mac useAck true
par RailwayLoRaStar.loRaNodes[1].LoRaNic.mac bitrate 250bps
attr unit bps
par RailwayLoRaStar.loRaNodes[1].LoRaNic.mac headerLength 17B
attr unit B
par RailwayLoRaStar.loRaNodes[1].LoRaNic.mac ackLength 14B
attr unit B
par RailwayLoRaStar.loRaNodes[1].LoRaNic.mac sifsTime 1e-05s
attr unit s
par RailwayLoRaStar.loRaNodes[1].LoRaNic.mac slotTime 2e-05s
attr unit s
par RailwayLoRaStar.loRaNodes[1].LoRaNic.mac difsTime 5e-05s
attr unit s
par RailwayLoRaStar.loRaNodes[1].LoRaNic.mac ackTimeout 0.44803s
attr unit s
par RailwayLoRaStar.loRaNodes[1].LoRaNic.mac mtu 1500
par RailwayLoRaStar.loRaNodes[1].LoRaNic.mac cwMin 31
par RailwayLoRaStar.loRaNodes[1].LoRaNic.mac cwMax 1023
par RailwayLoRaStar.loRaNodes[1].LoRaNic.mac cwMulticast 31
par RailwayLoRaStar.loRaNodes[1].LoRaNic.mac retryLimit 7
scalar RailwayLoRaStar.loRaNodes[1].LoRaNic.mac numRetry 0
scalar RailwayLoRaStar.loRaNodes[1].LoRaNic.mac numSentWithoutRetry 0
scalar RailwayLoRaStar.loRaNodes[1].LoRaNic.mac numGivenUp 0
scalar RailwayLoRaStar.loRaNodes[1].LoRaNic.mac numSent 1
scalar RailwayLoRaStar.loRaNodes[1].LoRaNic.mac numReceived 0
scalar RailwayLoRaStar.loRaNodes[1].LoRaNic.mac numSentBroadcast 0
scalar RailwayLoRaStar.loRaNodes[1].LoRaNic.mac numReceivedBroadcast 0
scalar RailwayLoRaStar.loRaNodes[1].LoRaNic.mac packetDropIncorrectlyReceived:count 0
attr interpolationmode none
attr recordingmode count
attr source packetDropReasonIsIncorrectlyReceived(packetDropped)
attr title "packet drop: incorrectly received, count"
scalar RailwayLoRaStar.loRaNodes[1].LoRaNic.mac packetDropIncorrectlyReceived:sum(packetBytes) 0
attr interpolationmode none
attr recordingmode sum(packetBytes)
attr source packetDropReasonIsIncorrectlyReceived(packetDropped)
attr title "packet drop: incorrectly received, sum(packetBytes)"
scalar RailwayLoRaStar.loRaNodes[1].LoRaNic.mac packetDropNotAddressedToUs:count 0
attr interpolationmode none
attr recordingmode count
attr source packetDropReasonIsNotAddressedToUs(packetDropped)
attr title "packet drop: not addressed to us, count"
scalar RailwayLoRaStar.loRaNodes[1].LoRaNic.mac packetDropNotAddressedToUs:sum(packetBytes) 0
attr interpolationmode none
attr recordingmode sum(packetBytes)
attr source packetDropReasonIsNotAddressedToUs(packetDropped)
attr title "packet drop: not addressed to us, sum(packetBytes)"
scalar RailwayLoRaStar.loRaNodes[1].LoRaNic.mac packetDropQueueOverflow:count 0
attr interpolationmode none
attr recordingmode count
attr source packetDropReasonIsQueueOverflow(packetDropped)
attr title "packet drop: queue overflow, count"
scalar RailwayLoRaStar.loRaNodes[1].LoRaNic.mac packetDropQueueOverflow:sum(packetBytes) 0
attr interpolationmode none
attr recordingmode sum(packetBytes)
attr source packetDropReasonIsQueueOverflow(packetDropped)
attr title "packet drop: queue overflow, sum(packetBytes)"
scalar RailwayLoRaStar.loRaNodes[1].LoRaNic.mac packetDropRetryLimitReached:count 0
attr interpolationmode none
attr recordingmode count
attr source packetDropReasonIsRetryLimitReached(packetDropped)
attr title "packet drop: retry limit reached, count"
scalar RailwayLoRaStar.loRaNodes[1].LoRaNic.mac packetDropRetryLimitReached:sum(packetBytes) 0
attr interpolationmode none
attr recordingmode sum(packetBytes)
attr source packetDropReasonIsRetryLimitReached(packetDropped)
attr title "packet drop: retry limit reached, sum(packetBytes)"
scalar RailwayLoRaStar.loRaNodes[1].LoRaNic.mac linkBroken:count 0
attr interpolationmode none
attr recordingmode count
attr source linkBroken
attr title "link break, count"
par RailwayLoRaStar.loRaNodes[1].LoRaNic.radio.antenna typename "\"inet.physicallayer.wireless.common.antenna.IsotropicAntenna\""
par RailwayLoRaStar.loRaNodes[1].LoRaNic.radio.antenna mobilityModule "\"^.^.^.mobility\""
par RailwayLoRaStar.loRaNodes[1].LoRaNic.radio.antenna numAntennas 1
par RailwayLoRaStar.loRaNodes[1].LoRaNic.radio.transmitter typename "\"flora.LoRaPhy.LoRaTransmitter\""
par RailwayLoRaStar.loRaNodes[1].LoRaNic.radio.transmitter preambleDuration 0.001s
attr unit s
par RailwayLoRaStar.loRaNodes[1].LoRaNic.radio.transmitter headerLength 0b
attr unit b
par RailwayLoRaStar.loRaNodes[1].LoRaNic.radio.transmitter bitrate 250000bps
attr unit bps
par RailwayLoRaStar.loRaNodes[1].LoRaNic.radio.transmitter power 0.025118W
attr unit W
par RailwayLoRaStar.loRaNodes[1].LoRaNic.radio.transmitter centerFrequency 8.68e+08Hz
attr unit Hz
par RailwayLoRaStar.loRaNodes[1].LoRaNic.radio.transmitter bandwidth 250000Hz
attr unit Hz
par RailwayLoRaStar.loRaNodes[1].LoRaNic.radio.transmitter modulation "\"LoRaModulation\""
scalar RailwayLoRaStar.loRaNodes[1].LoRaNic.radio.transmitter LoRaTransmissionCreated:count 1
attr recordingmode count
attr source LoRaTransmissionCreated
par RailwayLoRaStar.loRaNodes[1].LoRaNic.radio.receiver typename "\"flora.LoRaPhy.LoRaReceiver\""
par RailwayLoRaStar.loRaNodes[1].LoRaNic.radio.receiver snirThreshold -8dB
attr unit dB
par RailwayLoRaStar.loRaNodes[1].LoRaNic.radio.receiver snirThresholdMode "\"min\""
attr unit min,mean
par RailwayLoRaStar.loRaNodes[1].LoRaNic.radio.receiver energyDetection -90dBm
attr unit dBm
par RailwayLoRaStar.loRaNodes[1].LoRaNic.radio.receiver sensitivity -137dBm
attr unit dBm
par RailwayLoRaStar.loRaNodes[1].LoRaNic.radio.receiver centerFrequency 8.68e+08Hz
attr unit Hz
par RailwayLoRaStar.loRaNodes[1].LoRaNic.radio.receiver bandwidth 250000Hz
attr unit Hz
par RailwayLoRaStar.loRaNodes[1].LoRaNic.radio.receiver modulation "\"BPSK\""
par RailwayLoRaStar.loRaNodes[1].LoRaNic.radio.receiver alohaChannelModel false
scalar RailwayLoRaStar.loRaNodes[1].LoRaNic.radio.receiver numCollisions 0
scalar RailwayLoRaStar.loRaNodes[1].LoRaNic.radio.receiver rcvBelowSensitivity 0
scalar RailwayLoRaStar.loRaNodes[1].LoRaNic.radio.receiver LoRaReceptionCollision:count 0
attr recordingmode count
attr source LoRaReceptionCollision
par RailwayLoRaStar.loRaNodes[1].LoRaNic.radio.energyConsumer typename "\"flora.LoRaEnergyModules.LoRaEnergyConsumer\""
par RailwayLoRaStar.loRaNodes[1].LoRaNic.radio.energyConsumer energySourceModule "\"^.IdealEpEnergyStorage\""
par RailwayLoRaStar.loRaNodes[1].LoRaNic.radio.energyConsumer offPowerConsumption 0W
attr unit W
par RailwayLoRaStar.loRaNodes[1].LoRaNic.radio.energyConsumer sleepPowerConsumption 0.001W
attr unit W
par RailwayLoRaStar.loRaNodes[1].LoRaNic.radio.energyConsumer switchingPowerConsumption 0.001W
attr unit W
par RailwayLoRaStar.loRaNodes[1].LoRaNic.radio.energyConsumer receiverIdlePowerConsumption 0.002W
attr unit W
par RailwayLoRaStar.loRaNodes[1].LoRaNic.radio.energyConsumer receiverBusyPowerConsumption 0.005W
attr unit W
par RailwayLoRaStar.loRaNodes[1].LoRaNic.radio.energyConsumer receiverReceivingPowerConsumption 0.01W
attr unit W
par RailwayLoRaStar.loRaNodes[1].LoRaNic.radio.energyConsumer receiverReceivingPreamblePowerConsumption 0.01W
attr unit W
par RailwayLoRaStar.loRaNodes[1].LoRaNic.radio.energyConsumer receiverReceivingHeaderPowerConsumption 0.01W
attr unit W
par RailwayLoRaStar.loRaNodes[1].LoRaNic.radio.energyConsumer receiverReceivingDataPowerConsumption 0.01W
attr unit W
par RailwayLoRaStar.loRaNodes[1].LoRaNic.radio.energyConsumer transmitterIdlePowerConsumption 0.002W
attr unit W
par RailwayLoRaStar.loRaNodes[1].LoRaNic.radio.energyConsumer transmitterTransmittingPowerConsumption 0.1W
attr unit W
par RailwayLoRaStar.loRaNodes[1].LoRaNic.radio.energyConsumer transmitterTransmittingPreamblePowerConsumption 0.1W
attr unit W
par RailwayLoRaStar.loRaNodes[1].LoRaNic.radio.energyConsumer transmitterTransmittingHeaderPowerConsumption 0.1W
attr unit W
par RailwayLoRaStar.loRaNodes[1].LoRaNic.radio.energyConsumer transmitterTransmittingDataPowerConsumption 0.1W
attr unit W
par RailwayLoRaStar.loRaNodes[1].LoRaNic.radio.energyConsumer configFile "<root>...</root> at /home/kfw/Desktop/omnetpp6-workspace/flora/simulations//energyConsumptionParameters.xml:2"
scalar RailwayLoRaStar.loRaNodes[1].LoRaNic.radio.energyConsumer totalEnergyConsumed 0.3446309856
par RailwayLoRaStar.loRaNodes[1].LoRaNic.radio.IdealEpEnergyStorage typename "\"inet.power.storage.IdealEpEnergyStorage\""
scalar RailwayLoRaStar.loRaNodes[1].LoRaNic.radio.IdealEpEnergyStorage residualEnergyCapacity:last -0.3446309856
attr interpolationmode linear
attr recordingmode last
attr source residualEnergyCapacityChanged
attr title "Residual energy capacity, last"
par RailwayLoRaStar.loRaNodes[1].LoRaNic.radio typename "\"flora.LoRa.LoRaRadio\""
par RailwayLoRaStar.loRaNodes[1].LoRaNic.radio radioMediumModule "\"LoRaMedium\""
par RailwayLoRaStar.loRaNodes[1].LoRaNic.radio energySourceModule "\"^.IdealEpEnergyStorage\""
par RailwayLoRaStar.loRaNodes[1].LoRaNic.radio initialRadioMode "\"off\""
attr enum off,sleep,receiver,transmitter,transceiver
par RailwayLoRaStar.loRaNodes[1].LoRaNic.radio switchingTimes "\"ms 0 0 0 0 0 0 0 0 0 0 0 0 0 0 0 0 0 0 0 0 0 0 0 0 0\""
par RailwayLoRaStar.loRaNodes[1].LoRaNic.radio sendRawBytes false
par RailwayLoRaStar.loRaNodes[1].LoRaNic.radio separateTransmissionParts false
par RailwayLoRaStar.loRaNodes[1].LoRaNic.radio separateReceptionParts false
par RailwayLoRaStar.loRaNodes[1].LoRaNic.radio displayCommunicationRange false
par RailwayLoRaStar.loRaNodes[1].LoRaNic.radio displayInterferenceRange false
par RailwayLoRaStar.loRaNodes[1].LoRaNic.radio centerFrequency 8.68e+08Hz
attr unit Hz
par RailwayLoRaStar.loRaNodes[1].LoRaNic.radio bandwidth 250000Hz
attr unit Hz
par RailwayLoRaStar.loRaNodes[1].LoRaNic.radio iAmGateway false
scalar RailwayLoRaStar.loRaNodes[1].LoRaNic.radio radioMode:count 12
attr interpolationmode sample-hold
attr recordingmode count
attr source radioModeChanged
attr title "Radio mode, count"
scalar RailwayLoRaStar.loRaNodes[1].LoRaNic.radio receptionState:count 8
attr interpolationmode sample-hold
attr recordingmode count
attr source receptionStateChanged
attr title "Radio reception state, count"
scalar RailwayLoRaStar.loRaNodes[1].LoRaNic.radio transmissionState:count 4
attr interpolationmode sample-hold
attr recordingmode count
attr source transmissionStateChanged
attr title "Radio transmission state, count"
statistic RailwayLoRaStar.loRaNodes[1].LoRaNic.radio minSnir:histogram
field count 0
field mean -nan
field stddev nan
field min nan
field max nan
field sum 0
field sqrsum 0
attr recordingmode histogram
attr source minimumSnir(packetSentToUpper)
attr title "Min SNIR"
bin	-inf	0
bin	0	0
bin	1	0
statistic RailwayLoRaStar.loRaNodes[1].LoRaNic.radio packetErrorRate:histogram
field count 0
field mean -nan
field stddev nan
field min nan
field max nan
field sum 0
field sqrsum 0
attr recordingmode histogram
attr source packetErrorRate(packetSentToUpper)
attr title "Packet error rate"
bin	-inf	0
bin	0	0
bin	1	0
statistic RailwayLoRaStar.loRaNodes[1].LoRaNic.radio bitErrorRate:histogram
field count 0
field mean -nan
field stddev nan
field min nan
field max nan
field sum 0
field sqrsum 0
attr recordingmode histogram
attr source bitErrorRate(packetSentToUpper)
attr title "Bit error rate"
bin	-inf	0
bin	0	0
bin	1	0
statistic RailwayLoRaStar.loRaNodes[1].LoRaNic.radio symbolErrorRate:histogram
field count 0
field mean -nan
field stddev nan
field min nan
field max nan
field sum 0
field sqrsum 0
attr recordingmode histogram
attr source symbolErrorRate(packetSentToUpper)
attr title "Symbol error rate"
bin	-inf	0
bin	0	0
bin	1	0
par RailwayLoRaStar.loRaNodes[1].LoRaNic typename "\"flora.LoRa.LoRaNic\""
par RailwayLoRaStar.loRaNodes[1].LoRaNic displayStringTextFormat "\"%a (%i)\\n%m\""
par RailwayLoRaStar.loRaNodes[1].LoRaNic recordPcap false
par RailwayLoRaStar.loRaNodes[1].LoRaNic numPcapRecorders 0
par RailwayLoRaStar.loRaNodes[1].LoRaNic interfaceTableModule "\"RailwayLoRaStar.loRaNodes[1].interfaceTable\""
par RailwayLoRaStar.loRaNodes[1].LoRaNic energySourceModule "\"^.IdealEpEnergyStorage\""
par RailwayLoRaStar.loRaNodes[1].LoRaNic protocol "\"\""
scalar RailwayLoRaStar.loRaNodes[1].LoRaNic packetDropInterfaceDown:count 0
attr interpolationmode none
attr recordingmode count
attr source packetDropReasonIsInterfaceDown(packetDropped)
attr title "packet drops: interface down, count"
scalar RailwayLoRaStar.loRaNodes[1].LoRaNic packetDropInterfaceDown:sum(packetBytes) 0
attr interpolationmode none
attr recordingmode sum(packetBytes)
attr source packetDropReasonIsInterfaceDown(packetDropped)
attr title "packet drops: interface down, sum(packetBytes)"
scalar RailwayLoRaStar.loRaNodes[1].LoRaNic packetDropNoCarrier:count 0
attr interpolationmode none
attr recordingmode count
attr source packetDropReasonIsNoCarrier(packetDropped)
attr title "packet drops: no carrier, count"
scalar RailwayLoRaStar.loRaNodes[1].LoRaNic packetDropNoCarrier:sum(packetBytes) 0
attr interpolationmode none
attr recordingmode sum(packetBytes)
attr source packetDropReasonIsNoCarrier(packetDropped)
attr title "packet drops: no carrier, sum(packetBytes)"
par RailwayLoRaStar.loRaNodes[1].app[0] typename "\"flora.LoRaApp.SimpleLoRaApp\""
par RailwayLoRaStar.loRaNodes[1].app[0] numberOfPacketsToSend 1
par RailwayLoRaStar.loRaNodes[1].app[0] timeToFirstPacket "uniform(1s, 10s)"
attr unit s
par RailwayLoRaStar.loRaNodes[1].app[0] timeToNextPacket exponential(60s)
attr unit s
par RailwayLoRaStar.loRaNodes[1].app[0] initialLoRaTP 14dBm
attr unit dBm
par RailwayLoRaStar.loRaNodes[1].app[0] initialLoRaCF 8.68e+08Hz
attr unit Hz
par RailwayLoRaStar.loRaNodes[1].app[0] initialLoRaSF 12
par RailwayLoRaStar.loRaNodes[1].app[0] initialLoRaBW 125000Hz
attr unit Hz
par RailwayLoRaStar.loRaNodes[1].app[0] initialLoRaCR 4
par RailwayLoRaStar.loRaNodes[1].app[0] initialUseHeader true
par RailwayLoRaStar.loRaNodes[1].app[0] evaluateADRinNode true
par RailwayLoRaStar.loRaNodes[1].app[0] dataSize 10B
attr unit B
scalar RailwayLoRaStar.loRaNodes[1].app[0] positionX 200
scalar RailwayLoRaStar.loRaNodes[1].app[0] positionY 550
scalar RailwayLoRaStar.loRaNodes[1].app[0] finalTP 14
scalar RailwayLoRaStar.loRaNodes[1].app[0] finalSF 12
scalar RailwayLoRaStar.loRaNodes[1].app[0] sentPackets 1
scalar RailwayLoRaStar.loRaNodes[1].app[0] receivedADRCommands 0
scalar RailwayLoRaStar.loRaNodes[1].app[0] LoRa_AppPacketSent:count 1
attr recordingmode count
attr source LoRa_AppPacketSent
par RailwayLoRaStar.loRaNodes[1] typename "\"flora.LoraNode.LoRaNode\""
par RailwayLoRaStar.loRaNodes[1] numApps 1
par RailwayLoRaStar.loRaNodes[1] deploymentType "\"\""
par RailwayLoRaStar.loRaNodes[1] maxGatewayDistance 320
par RailwayLoRaStar.loRaNodes[1] gatewayX 320
par RailwayLoRaStar.loRaNodes[1] gatewayY 320
par RailwayLoRaStar.loRaNodes[2].interfaceTable typename "\"inet.networklayer.common.InterfaceTable\""
par RailwayLoRaStar.loRaNodes[2].interfaceTable displayAddresses false
par RailwayLoRaStar.loRaNodes[2].mobility typename "\"inet.mobility.static.StationaryMobility\""
par RailwayLoRaStar.loRaNodes[2].mobility subjectModule "\"^\""
par RailwayLoRaStar.loRaNodes[2].mobility coordinateSystemModule "\"\""
par RailwayLoRaStar.loRaNodes[2].mobility displayStringTextFormat "\"p: %p\\nv: %v\""
attr mutable ""
par RailwayLoRaStar.loRaNodes[2].mobility updateDisplayString true
par RailwayLoRaStar.loRaNodes[2].mobility constraintAreaMinX 0m
attr unit m
par RailwayLoRaStar.loRaNodes[2].mobility constraintAreaMinY -50m
attr unit m
par RailwayLoRaStar.loRaNodes[2].mobility constraintAreaMinZ "-inf m"
attr unit m
par RailwayLoRaStar.loRaNodes[2].mobility constraintAreaMaxX 2500m
attr unit m
par RailwayLoRaStar.loRaNodes[2].mobility constraintAreaMaxY 900m
attr unit m
par RailwayLoRaStar.loRaNodes[2].mobility constraintAreaMaxZ "inf m"
attr unit m
par RailwayLoRaStar.loRaNodes[2].mobility initialX 300m
attr unit m
par RailwayLoRaStar.loRaNodes[2].mobility initialY 650m
attr unit m
par RailwayLoRaStar.loRaNodes[2].mobility initialZ 0m
attr unit m
par RailwayLoRaStar.loRaNodes[2].mobility initialLatitude "nan deg"
attr unit deg
par RailwayLoRaStar.loRaNodes[2].mobility initialLongitude "nan deg"
attr unit deg
par RailwayLoRaStar.loRaNodes[2].mobility initialAltitude 0m
attr unit m
par RailwayLoRaStar.loRaNodes[2].mobility initialHeading 0deg
attr unit deg
par RailwayLoRaStar.loRaNodes[2].mobility initialElevation 0deg
attr unit deg
par RailwayLoRaStar.loRaNodes[2].mobility initialBank 0deg
attr unit deg
par RailwayLoRaStar.loRaNodes[2].mobility initFromDisplayString false
par RailwayLoRaStar.loRaNodes[2].mobility updateFromDisplayString true
par RailwayLoRaStar.loRaNodes[2].LoRaNic.radioIn.channel typename "\"ned.IdealChannel\""
par RailwayLoRaStar.loRaNodes[2].LoRaNic.mac.upperLayerOut.channel typename "\"ned.IdealChannel\""
par RailwayLoRaStar.loRaNodes[2].LoRaNic.upperLayerIn.channel typename "\"ned.IdealChannel\""
par RailwayLoRaStar.loRaNodes[2].LoRaNic.queue typename "\"inet.queueing.queue.DropTailQueue\""
par RailwayLoRaStar.loRaNodes[2].LoRaNic.queue displayStringTextFormat "\"contains %p pk (%l) pushed %u\\npulled %o removed %r dropped %d\""
par RailwayLoRaStar.loRaNodes[2].LoRaNic.queue packetCapacity -1
par RailwayLoRaStar.loRaNodes[2].LoRaNic.queue dataCapacity -1b
attr unit b
par RailwayLoRaStar.loRaNodes[2].LoRaNic.queue dropperClass "\"inet::queueing::PacketAtCollectionEndDropper\""
par RailwayLoRaStar.loRaNodes[2].LoRaNic.queue comparatorClass "\"\""
par RailwayLoRaStar.loRaNodes[2].LoRaNic.queue bufferModule "\"\""
scalar RailwayLoRaStar.loRaNodes[2].LoRaNic.queue queueLength:last 0
attr autoWarmupFilter false
attr interpolationmode sample-hold
attr recordingmode last
attr source "warmup(atomic(constant0(packetPushEnded) + count(packetPushStarted) - count(packetPulled) - count(packetRemoved) - count(packetDropped)))"
attr title "queue length, last"
attr unit pk
scalar RailwayLoRaStar.loRaNodes[2].LoRaNic.queue queueLength:max 0
attr autoWarmupFilter false
attr interpolationmode sample-hold
attr recordingmode max
attr source "warmup(atomic(constant0(packetPushEnded) + count(packetPushStarted) - count(packetPulled) - count(packetRemoved) - count(packetDropped)))"
attr title "queue length, max"
attr unit pk
scalar RailwayLoRaStar.loRaNodes[2].LoRaNic.queue queueLength:timeavg 0
attr autoWarmupFilter false
attr interpolationmode sample-hold
attr recordingmode timeavg
attr source "warmup(atomic(constant0(packetPushEnded) + count(packetPushStarted) - count(packetPulled) - count(packetRemoved) - count(packetDropped)))"
attr title "queue length, timeavg"
attr unit pk
scalar RailwayLoRaStar.loRaNodes[2].LoRaNic.queue queueBitLength:last 0
attr autoWarmupFilter false
attr interpolationmode sample-hold
attr recordingmode last
attr source "warmup(atomic(constant0(packetPushEnded) + sum(packetLength(packetPushStarted)) - sum(packetLength(packetPulled)) - sum(packetLength(packetRemoved)) - sum(packetLength(packetDropped))))"
attr title "queue bit length, last"
attr unit b
scalar RailwayLoRaStar.loRaNodes[2].LoRaNic.queue queueBitLength:max 0
attr autoWarmupFilter false
attr interpolationmode sample-hold
attr recordingmode max
attr source "warmup(atomic(constant0(packetPushEnded) + sum(packetLength(packetPushStarted)) - sum(packetLength(packetPulled)) - sum(packetLength(packetRemoved)) - sum(packetLength(packetDropped))))"
attr title "queue bit length, max"
attr unit b
scalar RailwayLoRaStar.loRaNodes[2].LoRaNic.queue queueBitLength:timeavg 0
attr autoWarmupFilter false
attr interpolationmode sample-hold
attr recordingmode timeavg
attr source "warmup(atomic(constant0(packetPushEnded) + sum(packetLength(packetPushStarted)) - sum(packetLength(packetPulled)) - sum(packetLength(packetRemoved)) - sum(packetLength(packetDropped))))"
attr title "queue bit length, timeavg"
attr unit b
statistic RailwayLoRaStar.loRaNodes[2].LoRaNic.queue queueingTime:histogram
field count 1
field mean 0
field stddev nan
field min 0
field max 0
field sum 0
field sqrsum 0
attr interpolationmode none
attr recordingmode histogram
attr source queueingTime(packetPulled)
attr title "queueing times"
attr unit s
bin	-inf	0
bin	-0.5	0
bin	-0.48	0
bin	-0.46	0
bin	-0.44	0
bin	-0.42	0
bin	-0.4	0
bin	-0.38	0
bin	-0.36	0
bin	-0.34	0
bin	-0.32	0
bin	-0.3	0
bin	-0.28	0
bin	-0.26	0
bin	-0.24	0
bin	-0.22	0
bin	-0.2	0
bin	-0.18	0
bin	-0.16	0
bin	-0.14	0
bin	-0.12	0
bin	-0.1	0
bin	-0.08	0
bin	-0.06	0
bin	-0.04	0
bin	-0.02	0
bin	0	1
bin	0.02	0
bin	0.04	0
bin	0.06	0
bin	0.08	0
bin	0.1	0
bin	0.12	0
bin	0.14	0
bin	0.16	0
bin	0.18	0
bin	0.2	0
bin	0.22	0
bin	0.24	0
bin	0.26	0
bin	0.28	0
bin	0.3	0
bin	0.32	0
bin	0.34	0
bin	0.36	0
bin	0.38	0
bin	0.4	0
bin	0.42	0
bin	0.44	0
bin	0.46	0
bin	0.48	0
bin	0.5	0
scalar RailwayLoRaStar.loRaNodes[2].LoRaNic.queue outgoingPackets:count 1
attr recordingmode count
attr source packetPulled
attr title "outgoing packets, count"
attr unit pk
scalar RailwayLoRaStar.loRaNodes[2].LoRaNic.queue outgoingPacketLengths:sum 80
attr interpolationmode none
attr recordingmode sum
attr source packetLength(packetPulled)
attr title "outgoing packet lengths, sum"
attr unit b
statistic RailwayLoRaStar.loRaNodes[2].LoRaNic.queue outgoingPacketLengths:histogram
field count 1
field mean 80
field stddev nan
field min 80
field max 80
field sum 80
field sqrsum 6400
attr interpolationmode none
attr recordingmode histogram
attr source packetLength(packetPulled)
attr title "outgoing packet lengths"
attr unit b
bin	-inf	0
bin	79	0
bin	80	1
bin	81	0
statistic RailwayLoRaStar.loRaNodes[2].LoRaNic.queue flowQueueingTime:histogram
field count 0
field mean -nan
field stddev nan
field min nan
field max nan
field sum 0
field sqrsum 0
attr interpolationmode none
attr recordingmode histogram
attr source queueingTime(demuxFlow(packetPulled))
attr title "flow queueing times"
attr unit s
bin	-inf	0
bin	0	0
bin	1	0
scalar RailwayLoRaStar.loRaNodes[2].LoRaNic.queue incomingPackets:count 1
attr recordingmode count
attr source packetPushStarted
attr title "incoming packets, count"
attr unit pk
scalar RailwayLoRaStar.loRaNodes[2].LoRaNic.queue incomingPacketLengths:sum 80
attr interpolationmode none
attr recordingmode sum
attr source packetLength(packetPushStarted)
attr title "incoming packet lengths, sum"
attr unit b
statistic RailwayLoRaStar.loRaNodes[2].LoRaNic.queue incomingPacketLengths:histogram
field count 1
field mean 80
field stddev nan
field min 80
field max 80
field sum 80
field sqrsum 6400
attr interpolationmode none
attr recordingmode histogram
attr source packetLength(packetPushStarted)
attr title "incoming packet lengths"
attr unit b
bin	-inf	0
bin	79	0
bin	80	1
bin	81	0
scalar RailwayLoRaStar.loRaNodes[2].LoRaNic.queue droppedPacketsQueueOverflow:count 0
attr interpolationmode none
attr recordingmode count
attr source packetDropReasonIsQueueOverflow(packetDropped)
attr title "dropped packets: queue overflow, count"
attr unit pk
scalar RailwayLoRaStar.loRaNodes[2].LoRaNic.queue droppedPacketLengthsQueueOverflow:sum 0
attr interpolationmode none
attr recordingmode sum
attr source packetLength(packetDropReasonIsQueueOverflow(packetDropped))
attr title "dropped packet lengths: queue overflow, sum"
attr unit b
par RailwayLoRaStar.loRaNodes[2].LoRaNic.mac typename "\"flora.LoRa.LoRaMac\""
par RailwayLoRaStar.loRaNodes[2].LoRaNic.mac interfaceTableModule "\"RailwayLoRaStar.loRaNodes[2].interfaceTable\""
par RailwayLoRaStar.loRaNodes[2].LoRaNic.mac radioModule "\"^.radio\""
par RailwayLoRaStar.loRaNodes[2].LoRaNic.mac address "\"0A-AA-00-00-00-03\""
attr mutable ""
par RailwayLoRaStar.loRaNodes[2].LoRaNic.mac fcsMode "\"declared\""
attr enum declared,computed
par RailwayLoRaStar.loRaNodes[2].LoRaNic.mac useAck true
par RailwayLoRaStar.loRaNodes[2].LoRaNic.mac bitrate 250bps
attr unit bps
par RailwayLoRaStar.loRaNodes[2].LoRaNic.mac headerLength 17B
attr unit B
par RailwayLoRaStar.loRaNodes[2].LoRaNic.mac ackLength 14B
attr unit B
par RailwayLoRaStar.loRaNodes[2].LoRaNic.mac sifsTime 1e-05s
attr unit s
par RailwayLoRaStar.loRaNodes[2].LoRaNic.mac slotTime 2e-05s
attr unit s
par RailwayLoRaStar.loRaNodes[2].LoRaNic.mac difsTime 5e-05s
attr unit s
par RailwayLoRaStar.loRaNodes[2].LoRaNic.mac ackTimeout 0.44803s
attr unit s
par RailwayLoRaStar.loRaNodes[2].LoRaNic.mac mtu 1500
par RailwayLoRaStar.loRaNodes[2].LoRaNic.mac cwMin 31
par RailwayLoRaStar.loRaNodes[2].LoRaNic.mac cwMax 1023
par RailwayLoRaStar.loRaNodes[2].LoRaNic.mac cwMulticast 31
par RailwayLoRaStar.loRaNodes[2].LoRaNic.mac retryLimit 7
scalar RailwayLoRaStar.loRaNodes[2].LoRaNic.mac numRetry 0
scalar RailwayLoRaStar.loRaNodes[2].LoRaNic.mac numSentWithoutRetry 0
scalar RailwayLoRaStar.loRaNodes[2].LoRaNic.mac numGivenUp 0
scalar RailwayLoRaStar.loRaNodes[2].LoRaNic.mac numSent 1
scalar RailwayLoRaStar.loRaNodes[2].LoRaNic.mac numReceived 0
scalar RailwayLoRaStar.loRaNodes[2].LoRaNic.mac numSentBroadcast 0
scalar RailwayLoRaStar.loRaNodes[2].LoRaNic.mac numReceivedBroadcast 0
scalar RailwayLoRaStar.loRaNodes[2].LoRaNic.mac packetDropIncorrectlyReceived:count 0
attr interpolationmode none
attr recordingmode count
attr source packetDropReasonIsIncorrectlyReceived(packetDropped)
attr title "packet drop: incorrectly received, count"
scalar RailwayLoRaStar.loRaNodes[2].LoRaNic.mac packetDropIncorrectlyReceived:sum(packetBytes) 0
attr interpolationmode none
attr recordingmode sum(packetBytes)
attr source packetDropReasonIsIncorrectlyReceived(packetDropped)
attr title "packet drop: incorrectly received, sum(packetBytes)"
scalar RailwayLoRaStar.loRaNodes[2].LoRaNic.mac packetDropNotAddressedToUs:count 0
attr interpolationmode none
attr recordingmode count
attr source packetDropReasonIsNotAddressedToUs(packetDropped)
attr title "packet drop: not addressed to us, count"
scalar RailwayLoRaStar.loRaNodes[2].LoRaNic.mac packetDropNotAddressedToUs:sum(packetBytes) 0
attr interpolationmode none
attr recordingmode sum(packetBytes)
attr source packetDropReasonIsNotAddressedToUs(packetDropped)
attr title "packet drop: not addressed to us, sum(packetBytes)"
scalar RailwayLoRaStar.loRaNodes[2].LoRaNic.mac packetDropQueueOverflow:count 0
attr interpolationmode none
attr recordingmode count
attr source packetDropReasonIsQueueOverflow(packetDropped)
attr title "packet drop: queue overflow, count"
scalar RailwayLoRaStar.loRaNodes[2].LoRaNic.mac packetDropQueueOverflow:sum(packetBytes) 0
attr interpolationmode none
attr recordingmode sum(packetBytes)
attr source packetDropReasonIsQueueOverflow(packetDropped)
attr title "packet drop: queue overflow, sum(packetBytes)"
scalar RailwayLoRaStar.loRaNodes[2].LoRaNic.mac packetDropRetryLimitReached:count 0
attr interpolationmode none
attr recordingmode count
attr source packetDropReasonIsRetryLimitReached(packetDropped)
attr title "packet drop: retry limit reached, count"
scalar RailwayLoRaStar.loRaNodes[2].LoRaNic.mac packetDropRetryLimitReached:sum(packetBytes) 0
attr interpolationmode none
attr recordingmode sum(packetBytes)
attr source packetDropReasonIsRetryLimitReached(packetDropped)
attr title "packet drop: retry limit reached, sum(packetBytes)"
scalar RailwayLoRaStar.loRaNodes[2].LoRaNic.mac linkBroken:count 0
attr interpolationmode none
attr recordingmode count
attr source linkBroken
attr title "link break, count"
par RailwayLoRaStar.loRaNodes[2].LoRaNic.radio.antenna typename "\"inet.physicallayer.wireless.common.antenna.IsotropicAntenna\""
par RailwayLoRaStar.loRaNodes[2].LoRaNic.radio.antenna mobilityModule "\"^.^.^.mobility\""
par RailwayLoRaStar.loRaNodes[2].LoRaNic.radio.antenna numAntennas 1
par RailwayLoRaStar.loRaNodes[2].LoRaNic.radio.transmitter typename "\"flora.LoRaPhy.LoRaTransmitter\""
par RailwayLoRaStar.loRaNodes[2].LoRaNic.radio.transmitter preambleDuration 0.001s
attr unit s
par RailwayLoRaStar.loRaNodes[2].LoRaNic.radio.transmitter headerLength 0b
attr unit b
par RailwayLoRaStar.loRaNodes[2].LoRaNic.radio.transmitter bitrate 250000bps
attr unit bps
par RailwayLoRaStar.loRaNodes[2].LoRaNic.radio.transmitter power 0.025118W
attr unit W
par RailwayLoRaStar.loRaNodes[2].LoRaNic.radio.transmitter centerFrequency 8.68e+08Hz
attr unit Hz
par RailwayLoRaStar.loRaNodes[2].LoRaNic.radio.transmitter bandwidth 250000Hz
attr unit Hz
par RailwayLoRaStar.loRaNodes[2].LoRaNic.radio.transmitter modulation "\"LoRaModulation\""
scalar RailwayLoRaStar.loRaNodes[2].LoRaNic.radio.transmitter LoRaTransmissionCreated:count 1
attr recordingmode count
attr source LoRaTransmissionCreated
par RailwayLoRaStar.loRaNodes[2].LoRaNic.radio.receiver typename "\"flora.LoRaPhy.LoRaReceiver\""
par RailwayLoRaStar.loRaNodes[2].LoRaNic.radio.receiver snirThreshold -8dB
attr unit dB
par RailwayLoRaStar.loRaNodes[2].LoRaNic.radio.receiver snirThresholdMode "\"min\""
attr unit min,mean
par RailwayLoRaStar.loRaNodes[2].LoRaNic.radio.receiver energyDetection -90dBm
attr unit dBm
par RailwayLoRaStar.loRaNodes[2].LoRaNic.radio.receiver sensitivity -137dBm
attr unit dBm
par RailwayLoRaStar.loRaNodes[2].LoRaNic.radio.receiver centerFrequency 8.68e+08Hz
attr unit Hz
par RailwayLoRaStar.loRaNodes[2].LoRaNic.radio.receiver bandwidth 250000Hz
attr unit Hz
par RailwayLoRaStar.loRaNodes[2].LoRaNic.radio.receiver modulation "\"BPSK\""
par RailwayLoRaStar.loRaNodes[2].LoRaNic.radio.receiver alohaChannelModel false
scalar RailwayLoRaStar.loRaNodes[2].LoRaNic.radio.receiver numCollisions 0
scalar RailwayLoRaStar.loRaNodes[2].LoRaNic.radio.receiver rcvBelowSensitivity 0
scalar RailwayLoRaStar.loRaNodes[2].LoRaNic.radio.receiver LoRaReceptionCollision:count 0
attr recordingmode count
attr source LoRaReceptionCollision
par RailwayLoRaStar.loRaNodes[2].LoRaNic.radio.energyConsumer typename "\"flora.LoRaEnergyModules.LoRaEnergyConsumer\""
par RailwayLoRaStar.loRaNodes[2].LoRaNic.radio.energyConsumer energySourceModule "\"^.IdealEpEnergyStorage\""
par RailwayLoRaStar.loRaNodes[2].LoRaNic.radio.energyConsumer offPowerConsumption 0W
attr unit W
par RailwayLoRaStar.loRaNodes[2].LoRaNic.radio.energyConsumer sleepPowerConsumption 0.001W
attr unit W
par RailwayLoRaStar.loRaNodes[2].LoRaNic.radio.energyConsumer switchingPowerConsumption 0.001W
attr unit W
par RailwayLoRaStar.loRaNodes[2].LoRaNic.radio.energyConsumer receiverIdlePowerConsumption 0.002W
attr unit W
par RailwayLoRaStar.loRaNodes[2].LoRaNic.radio.energyConsumer receiverBusyPowerConsumption 0.005W
attr unit W
par RailwayLoRaStar.loRaNodes[2].LoRaNic.radio.energyConsumer receiverReceivingPowerConsumption 0.01W
attr unit W
par RailwayLoRaStar.loRaNodes[2].LoRaNic.radio.energyConsumer receiverReceivingPreamblePowerConsumption 0.01W
attr unit W
par RailwayLoRaStar.loRaNodes[2].LoRaNic.radio.energyConsumer receiverReceivingHeaderPowerConsumption 0.01W
attr unit W
par RailwayLoRaStar.loRaNodes[2].LoRaNic.radio.energyConsumer receiverReceivingDataPowerConsumption 0.01W
attr unit W
par RailwayLoRaStar.loRaNodes[2].LoRaNic.radio.energyConsumer transmitterIdlePowerConsumption 0.002W
attr unit W
par RailwayLoRaStar.loRaNodes[2].LoRaNic.radio.energyConsumer transmitterTransmittingPowerConsumption 0.1W
attr unit W
par RailwayLoRaStar.loRaNodes[2].LoRaNic.radio.energyConsumer transmitterTransmittingPreamblePowerConsumption 0.1W
attr unit W
par RailwayLoRaStar.loRaNodes[2].LoRaNic.radio.energyConsumer transmitterTransmittingHeaderPowerConsumption 0.1W
attr unit W
par RailwayLoRaStar.loRaNodes[2].LoRaNic.radio.energyConsumer transmitterTransmittingDataPowerConsumption 0.1W
attr unit W
par RailwayLoRaStar.loRaNodes[2].LoRaNic.radio.energyConsumer configFile "<root>...</root> at /home/kfw/Desktop/omnetpp6-workspace/flora/simulations//energyConsumptionParameters.xml:2"
scalar RailwayLoRaStar.loRaNodes[2].LoRaNic.radio.energyConsumer totalEnergyConsumed 0.3446309856
par RailwayLoRaStar.loRaNodes[2].LoRaNic.radio.IdealEpEnergyStorage typename "\"inet.power.storage.IdealEpEnergyStorage\""
scalar RailwayLoRaStar.loRaNodes[2].LoRaNic.radio.IdealEpEnergyStorage residualEnergyCapacity:last -0.3446309856
attr interpolationmode linear
attr recordingmode last
attr source residualEnergyCapacityChanged
attr title "Residual energy capacity, last"
par RailwayLoRaStar.loRaNodes[2].LoRaNic.radio typename "\"flora.LoRa.LoRaRadio\""
par RailwayLoRaStar.loRaNodes[2].LoRaNic.radio radioMediumModule "\"LoRaMedium\""
par RailwayLoRaStar.loRaNodes[2].LoRaNic.radio energySourceModule "\"^.IdealEpEnergyStorage\""
par RailwayLoRaStar.loRaNodes[2].LoRaNic.radio initialRadioMode "\"off\""
attr enum off,sleep,receiver,transmitter,transceiver
par RailwayLoRaStar.loRaNodes[2].LoRaNic.radio switchingTimes "\"ms 0 0 0 0 0 0 0 0 0 0 0 0 0 0 0 0 0 0 0 0 0 0 0 0 0\""
par RailwayLoRaStar.loRaNodes[2].LoRaNic.radio sendRawBytes false
par RailwayLoRaStar.loRaNodes[2].LoRaNic.radio separateTransmissionParts false
par RailwayLoRaStar.loRaNodes[2].LoRaNic.radio separateReceptionParts false
par RailwayLoRaStar.loRaNodes[2].LoRaNic.radio displayCommunicationRange false
par RailwayLoRaStar.loRaNodes[2].LoRaNic.radio displayInterferenceRange false
par RailwayLoRaStar.loRaNodes[2].LoRaNic.radio centerFrequency 8.68e+08Hz
attr unit Hz
par RailwayLoRaStar.loRaNodes[2].LoRaNic.radio bandwidth 250000Hz
attr unit Hz
par RailwayLoRaStar.loRaNodes[2].LoRaNic.radio iAmGateway false
scalar RailwayLoRaStar.loRaNodes[2].LoRaNic.radio radioMode:count 11
attr interpolationmode sample-hold
attr recordingmode count
attr source radioModeChanged
attr title "Radio mode, count"
scalar RailwayLoRaStar.loRaNodes[2].LoRaNic.radio receptionState:count 8
attr interpolationmode sample-hold
attr recordingmode count
attr source receptionStateChanged
attr title "Radio reception state, count"
scalar RailwayLoRaStar.loRaNodes[2].LoRaNic.radio transmissionState:count 4
attr interpolationmode sample-hold
attr recordingmode count
attr source transmissionStateChanged
attr title "Radio transmission state, count"
statistic RailwayLoRaStar.loRaNodes[2].LoRaNic.radio minSnir:histogram
field count 1
field mean 2.3839926422495
field stddev nan
field min 2.3839926422495
field max 2.3839926422495
field sum 2.3839926422495
field sqrsum 5.6834209183
attr recordingmode histogram
attr source minimumSnir(packetSentToUpper)
attr title "Min SNIR"
bin	-inf	0
bin	1.88	0
bin	1.9	0
bin	1.92	0
bin	1.94	0
bin	1.96	0
bin	1.98	0
bin	2	0
bin	2.02	0
bin	2.04	0
bin	2.06	0
bin	2.08	0
bin	2.1	0
bin	2.12	0
bin	2.14	0
bin	2.16	0
bin	2.18	0
bin	2.2	0
bin	2.22	0
bin	2.24	0
bin	2.26	0
bin	2.28	0
bin	2.3	0
bin	2.32	0
bin	2.34	0
bin	2.36	0
bin	2.38	1
bin	2.4	0
bin	2.42	0
bin	2.44	0
bin	2.46	0
bin	2.48	0
bin	2.5	0
bin	2.52	0
bin	2.54	0
bin	2.56	0
bin	2.58	0
bin	2.6	0
bin	2.62	0
bin	2.64	0
bin	2.66	0
bin	2.68	0
bin	2.7	0
bin	2.72	0
bin	2.74	0
bin	2.76	0
bin	2.78	0
bin	2.8	0
bin	2.82	0
bin	2.84	0
bin	2.86	0
bin	2.88	0
bin	2.9	0
[...]
attr unit pk
scalar RailwayLoRaStar.nsRouter.eth[0].queue droppedPacketLengthsQueueOverflow:sum 0
attr interpolationmode none
attr recordingmode sum
attr source packetLength(packetDropReasonIsQueueOverflow(packetDropped))
attr title "dropped packet lengths: queue overflow, sum"
attr unit b
par RailwayLoRaStar.nsRouter.eth[0].mac typename "\"inet.linklayer.ethernet.basic.EthernetMac\""
par RailwayLoRaStar.nsRouter.eth[0].mac interfaceTableModule "\"RailwayLoRaStar.nsRouter.interfaceTable\""
par RailwayLoRaStar.nsRouter.eth[0].mac displayStringTextFormat "\"rate: %b\\nsent: %s, rcvd: %r\\nqueue: %q, drop: %d\""
par RailwayLoRaStar.nsRouter.eth[0].mac sendRawBytes false
par RailwayLoRaStar.nsRouter.eth[0].mac promiscuous false
par RailwayLoRaStar.nsRouter.eth[0].mac duplexMode true
par RailwayLoRaStar.nsRouter.eth[0].mac mtu 1500B
attr unit B
par RailwayLoRaStar.nsRouter.eth[0].mac fcsMode "\"declared\""
attr enum declared,computed
par RailwayLoRaStar.nsRouter.eth[0].mac stopOperationExtraTime -1s
attr unit s
par RailwayLoRaStar.nsRouter.eth[0].mac stopOperationTimeout 2s
attr unit s
scalar RailwayLoRaStar.nsRouter.eth[0].mac "simulated time" 5000
scalar RailwayLoRaStar.nsRouter.eth[0].mac full-duplex 1
scalar RailwayLoRaStar.nsRouter.eth[0].mac "frames/sec sent" 0.0006
scalar RailwayLoRaStar.nsRouter.eth[0].mac "frames/sec rcvd" 0.0002
scalar RailwayLoRaStar.nsRouter.eth[0].mac "bits/sec sent" 0.336
scalar RailwayLoRaStar.nsRouter.eth[0].mac "bits/sec rcvd" 0.1024
scalar RailwayLoRaStar.nsRouter.eth[0].mac "rx channel idle (%)" 99.99999998848
scalar RailwayLoRaStar.nsRouter.eth[0].mac "rx channel utilization (%)" 1.152e-08
scalar RailwayLoRaStar.nsRouter.eth[0].mac rxPausePkUnits:count 0
attr interpolationmode none
attr recordingmode count
attr title "pause units received, count"
scalar RailwayLoRaStar.nsRouter.eth[0].mac rxPausePkUnits:sum 0
attr interpolationmode none
attr recordingmode sum
attr title "pause units received, sum"
scalar RailwayLoRaStar.nsRouter.eth[0].mac txPausePkUnits:count 0
attr interpolationmode none
attr recordingmode count
attr title "pause units sent, count"
scalar RailwayLoRaStar.nsRouter.eth[0].mac txPausePkUnits:sum 0
attr interpolationmode none
attr recordingmode sum
attr title "pause units sent, sum"
scalar RailwayLoRaStar.nsRouter.eth[0].mac rxPkOk:count 1
attr interpolationmode none
attr recordingmode count
attr source rxPkOk
attr title "packets received OK, count"
scalar RailwayLoRaStar.nsRouter.eth[0].mac rxPkOk:sum(packetBytes) 64
attr interpolationmode none
attr recordingmode sum(packetBytes)
attr source rxPkOk
attr title "packets received OK, sum(packetBytes)"
scalar RailwayLoRaStar.nsRouter.eth[0].mac txPk:count 3
attr interpolationmode none
attr recordingmode count
attr source packetSentToLower
attr title "packets transmitted, count"
scalar RailwayLoRaStar.nsRouter.eth[0].mac txPk:sum(packetBytes) 210
attr interpolationmode none
attr recordingmode sum(packetBytes)
attr source packetSentToLower
attr title "packets transmitted, sum(packetBytes)"
scalar RailwayLoRaStar.nsRouter.eth[0].mac packetReceivedFromUpper:count 3
attr interpolationmode none
attr recordingmode count
attr source packetReceivedFromUpper
attr title "packet bytes from higher layer, count"
scalar RailwayLoRaStar.nsRouter.eth[0].mac packetReceivedFromUpper:sum(packetBytes) 192
attr interpolationmode none
attr recordingmode sum(packetBytes)
attr source packetReceivedFromUpper
attr title "packet bytes from higher layer, sum(packetBytes)"
scalar RailwayLoRaStar.nsRouter.eth[0].mac passedUpPk:count 1
attr interpolationmode none
attr recordingmode count
attr source packetSentToUpper
attr title "packets passed to higher layer, count"
scalar RailwayLoRaStar.nsRouter.eth[0].mac passedUpPk:sum(packetBytes) 64
attr interpolationmode none
attr recordingmode sum(packetBytes)
attr source packetSentToUpper
attr title "packets passed to higher layer, sum(packetBytes)"
scalar RailwayLoRaStar.nsRouter.eth[0].mac packetDropIncorrectlyReceived:count 0
attr interpolationmode none
attr recordingmode count
attr source packetDropReasonIsIncorrectlyReceived(packetDropped)
attr title "packet drop: incorrectly received, count"
scalar RailwayLoRaStar.nsRouter.eth[0].mac packetDropIncorrectlyReceived:sum(packetBytes) 0
attr interpolationmode none
attr recordingmode sum(packetBytes)
attr source packetDropReasonIsIncorrectlyReceived(packetDropped)
attr title "packet drop: incorrectly received, sum(packetBytes)"
scalar RailwayLoRaStar.nsRouter.eth[0].mac packetDropInterfaceDown:count 0
attr interpolationmode none
attr recordingmode count
attr source packetDropReasonIsInterfaceDown(packetDropped)
attr title "packet drop: interface down, count"
scalar RailwayLoRaStar.nsRouter.eth[0].mac packetDropInterfaceDown:sum(packetBytes) 0
attr interpolationmode none
attr recordingmode sum(packetBytes)
attr source packetDropReasonIsInterfaceDown(packetDropped)
attr title "packet drop: interface down, sum(packetBytes)"
scalar RailwayLoRaStar.nsRouter.eth[0].mac packetDropNotAddressedToUs:count 0
attr interpolationmode none
attr recordingmode count
attr source packetDropReasonIsNotAddressedToUs(packetDropped)
attr title "packet drop: not addressed to us, count"
scalar RailwayLoRaStar.nsRouter.eth[0].mac packetDropNotAddressedToUs:sum(packetBytes) 0
attr interpolationmode none
attr recordingmode sum(packetBytes)
attr source packetDropReasonIsNotAddressedToUs(packetDropped)
attr title "packet drop: not addressed to us, sum(packetBytes)"
par RailwayLoRaStar.nsRouter.eth[0] typename "\"inet.linklayer.ethernet.EthernetInterface\""
par RailwayLoRaStar.nsRouter.eth[0] displayStringTextFormat "\"%a (%i)\\n%m\""
par RailwayLoRaStar.nsRouter.eth[0] recordPcap false
par RailwayLoRaStar.nsRouter.eth[0] numPcapRecorders 0
par RailwayLoRaStar.nsRouter.eth[0] interfaceTableModule "\"RailwayLoRaStar.nsRouter.interfaceTable\""
par RailwayLoRaStar.nsRouter.eth[0] protocol "\"ethernetmac\""
par RailwayLoRaStar.nsRouter.eth[0] address "\"0A-AA-00-00-00-1C\""
attr mutable ""
par RailwayLoRaStar.nsRouter.eth[0] duplexMode true
par RailwayLoRaStar.nsRouter.eth[0] csmacdSupport false
par RailwayLoRaStar.nsRouter.eth[0] bitrate 0bps
attr unit bps
par RailwayLoRaStar.nsRouter.eth[0] fcsMode "\"declared\""
attr enum declared,computed
scalar RailwayLoRaStar.nsRouter.eth[0] packetDropInterfaceDown:count 0
attr interpolationmode none
attr recordingmode count
attr source packetDropReasonIsInterfaceDown(packetDropped)
attr title "packet drops: interface down, count"
scalar RailwayLoRaStar.nsRouter.eth[0] packetDropInterfaceDown:sum(packetBytes) 0
attr interpolationmode none
attr recordingmode sum(packetBytes)
attr source packetDropReasonIsInterfaceDown(packetDropped)
attr title "packet drops: interface down, sum(packetBytes)"
scalar RailwayLoRaStar.nsRouter.eth[0] packetDropNoCarrier:count 0
attr interpolationmode none
attr recordingmode count
attr source packetDropReasonIsNoCarrier(packetDropped)
attr title "packet drops: no carrier, count"
scalar RailwayLoRaStar.nsRouter.eth[0] packetDropNoCarrier:sum(packetBytes) 0
attr interpolationmode none
attr recordingmode sum(packetBytes)
attr source packetDropReasonIsNoCarrier(packetDropped)
attr title "packet drops: no carrier, sum(packetBytes)"
par RailwayLoRaStar.nsRouter.ipv4.transportIn.channel typename "\"ned.IdealChannel\""
par RailwayLoRaStar.nsRouter.ipv4.up.out[0].channel typename "\"ned.IdealChannel\""
par RailwayLoRaStar.nsRouter.ipv4.lp.out[2].channel typename "\"ned.IdealChannel\""
par RailwayLoRaStar.nsRouter.ipv4.ifIn.channel typename "\"ned.IdealChannel\""
par RailwayLoRaStar.nsRouter.ipv4.configurator typename "\"inet.networklayer.configurator.ipv4.Ipv4NodeConfigurator\""
par RailwayLoRaStar.nsRouter.ipv4.configurator interfaceTableModule "\"RailwayLoRaStar.nsRouter.interfaceTable\""
par RailwayLoRaStar.nsRouter.ipv4.configurator routingTableModule "\"RailwayLoRaStar.nsRouter.ipv4.routingTable\""
par RailwayLoRaStar.nsRouter.ipv4.configurator networkConfiguratorModule "\"configurator\""
par RailwayLoRaStar.nsRouter.ipv4.configurator configureRoutingTable true
par RailwayLoRaStar.nsRouter.ipv4.routingTable typename "\"inet.networklayer.ipv4.Ipv4RoutingTable\""
par RailwayLoRaStar.nsRouter.ipv4.routingTable interfaceTableModule "\"RailwayLoRaStar.nsRouter.interfaceTable\""
par RailwayLoRaStar.nsRouter.ipv4.routingTable routerId "\"auto\""
par RailwayLoRaStar.nsRouter.ipv4.routingTable netmaskRoutes "\"*\""
par RailwayLoRaStar.nsRouter.ipv4.routingTable forwarding true
par RailwayLoRaStar.nsRouter.ipv4.routingTable multicastForwarding false
par RailwayLoRaStar.nsRouter.ipv4.routingTable useAdminDist false
par RailwayLoRaStar.nsRouter.ipv4.routingTable routingFile "\"\""
par RailwayLoRaStar.nsRouter.ipv4.natTable typename "\"inet.networklayer.ipv4.Ipv4NatTable\""
par RailwayLoRaStar.nsRouter.ipv4.natTable networkProtocolModule "\"^.ip\""
par RailwayLoRaStar.nsRouter.ipv4.natTable config "<config/> at content:1"
par RailwayLoRaStar.nsRouter.ipv4.up typename "\"inet.common.MessageDispatcher\""
par RailwayLoRaStar.nsRouter.ipv4.up displayStringTextFormat "\"processed %p pk (%l)\""
par RailwayLoRaStar.nsRouter.ipv4.up forwardServiceRegistration true
par RailwayLoRaStar.nsRouter.ipv4.up forwardProtocolRegistration true
par RailwayLoRaStar.nsRouter.ipv4.igmp typename "\"inet.networklayer.ipv4.Igmpv2\""
par RailwayLoRaStar.nsRouter.ipv4.igmp interfaceTableModule "\"RailwayLoRaStar.nsRouter.interfaceTable\""
par RailwayLoRaStar.nsRouter.ipv4.igmp routingTableModule "\"RailwayLoRaStar.nsRouter.ipv4.routingTable\""
par RailwayLoRaStar.nsRouter.ipv4.igmp crcMode "\"declared\""
attr enum declared,computed
par RailwayLoRaStar.nsRouter.ipv4.igmp enabled true
par RailwayLoRaStar.nsRouter.ipv4.igmp robustnessVariable 2
par RailwayLoRaStar.nsRouter.ipv4.igmp queryInterval 125s
attr unit s
par RailwayLoRaStar.nsRouter.ipv4.igmp queryResponseInterval 10s
attr unit s
par RailwayLoRaStar.nsRouter.ipv4.igmp groupMembershipInterval 260s
attr unit s
par RailwayLoRaStar.nsRouter.ipv4.igmp otherQuerierPresentInterval 255s
attr unit s
par RailwayLoRaStar.nsRouter.ipv4.igmp startupQueryInterval 31.25s
attr unit s
par RailwayLoRaStar.nsRouter.ipv4.igmp startupQueryCount 2
par RailwayLoRaStar.nsRouter.ipv4.igmp lastMemberQueryInterval 1s
attr unit s
par RailwayLoRaStar.nsRouter.ipv4.igmp lastMemberQueryCount 2
par RailwayLoRaStar.nsRouter.ipv4.igmp unsolicitedReportInterval 10s
attr unit s
par RailwayLoRaStar.nsRouter.ipv4.icmp typename "\"inet.networklayer.ipv4.Icmp\""
par RailwayLoRaStar.nsRouter.ipv4.icmp interfaceTableModule "\"RailwayLoRaStar.nsRouter.interfaceTable\""
par RailwayLoRaStar.nsRouter.ipv4.icmp routingTableModule "\"RailwayLoRaStar.nsRouter.ipv4.routingTable\""
par RailwayLoRaStar.nsRouter.ipv4.icmp crcMode "\"declared\""
attr enum declared,computed
attr mutable ""
par RailwayLoRaStar.nsRouter.ipv4.icmp quoteLength 8B
attr mutable ""
attr unit B
par RailwayLoRaStar.nsRouter.ipv4.mp typename "\"inet.common.MessageDispatcher\""
par RailwayLoRaStar.nsRouter.ipv4.mp displayStringTextFormat "\"processed %p pk (%l)\""
par RailwayLoRaStar.nsRouter.ipv4.mp forwardServiceRegistration true
par RailwayLoRaStar.nsRouter.ipv4.mp forwardProtocolRegistration true
par RailwayLoRaStar.nsRouter.ipv4.ip typename "\"inet.networklayer.ipv4.Ipv4\""
par RailwayLoRaStar.nsRouter.ipv4.ip interfaceTableModule "\"RailwayLoRaStar.nsRouter.interfaceTable\""
par RailwayLoRaStar.nsRouter.ipv4.ip routingTableModule "\"RailwayLoRaStar.nsRouter.ipv4.routingTable\""
par RailwayLoRaStar.nsRouter.ipv4.ip arpModule "\"RailwayLoRaStar.nsRouter.ipv4.arp\""
par RailwayLoRaStar.nsRouter.ipv4.ip icmpModule "\"RailwayLoRaStar.nsRouter.ipv4.icmp\""
par RailwayLoRaStar.nsRouter.ipv4.ip crcMode "\"declared\""
attr enum declared,computed
par RailwayLoRaStar.nsRouter.ipv4.ip timeToLive 32
par RailwayLoRaStar.nsRouter.ipv4.ip multicastTimeToLive 32
par RailwayLoRaStar.nsRouter.ipv4.ip fragmentTimeout 60s
attr unit s
par RailwayLoRaStar.nsRouter.ipv4.ip limitedBroadcast false
par RailwayLoRaStar.nsRouter.ipv4.ip directBroadcastInterfaces "\"\""
scalar RailwayLoRaStar.nsRouter.ipv4.ip packetDropAddressResolutionFailed:count 0
attr interpolationmode none
attr recordingmode count
attr source packetDropReasonIsAddressResolutionFailed(packetDropped)
attr title "packet drop: address resolution failed, count"
scalar RailwayLoRaStar.nsRouter.ipv4.ip packetDropAddressResolutionFailed:sum(packetBytes) 0
attr interpolationmode none
attr recordingmode sum(packetBytes)
attr source packetDropReasonIsAddressResolutionFailed(packetDropped)
attr title "packet drop: address resolution failed, sum(packetBytes)"
scalar RailwayLoRaStar.nsRouter.ipv4.ip packetDropHopLimitReached:count 0
attr interpolationmode none
attr recordingmode count
attr source packetDropReasonIsHopLimitReached(packetDropped)
attr title "packet drop: hop limit reached, count"
scalar RailwayLoRaStar.nsRouter.ipv4.ip packetDropHopLimitReached:sum(packetBytes) 0
attr interpolationmode none
attr recordingmode sum(packetBytes)
attr source packetDropReasonIsHopLimitReached(packetDropped)
attr title "packet drop: hop limit reached, sum(packetBytes)"
scalar RailwayLoRaStar.nsRouter.ipv4.ip packetDropForwardingDisabled:count 0
attr interpolationmode none
attr recordingmode count
attr source packetDropReasonIsForwardingDisabled(packetDropped)
attr title "packet drop: forwarding disabled, count"
scalar RailwayLoRaStar.nsRouter.ipv4.ip packetDropForwardingDisabled:sum(packetBytes) 0
attr interpolationmode none
attr recordingmode sum(packetBytes)
attr source packetDropReasonIsForwardingDisabled(packetDropped)
attr title "packet drop: forwarding disabled, sum(packetBytes)"
scalar RailwayLoRaStar.nsRouter.ipv4.ip packetDropNoInterfaceFound:count 0
attr interpolationmode none
attr recordingmode count
attr source packetDropReasonIsNoInterfaceFound(packetDropped)
attr title "packet drop: no interface found, count"
scalar RailwayLoRaStar.nsRouter.ipv4.ip packetDropNoInterfaceFound:sum(packetBytes) 0
attr interpolationmode none
attr recordingmode sum(packetBytes)
attr source packetDropReasonIsNoInterfaceFound(packetDropped)
attr title "packet drop: no interface found, sum(packetBytes)"
scalar RailwayLoRaStar.nsRouter.ipv4.ip packetDropNoRouteFound:count 0
attr interpolationmode none
attr recordingmode count
attr source packetDropReasonIsNoRouteFound(packetDropped)
attr title "packet drop: no route found, count"
scalar RailwayLoRaStar.nsRouter.ipv4.ip packetDropNoRouteFound:sum(packetBytes) 0
attr interpolationmode none
attr recordingmode sum(packetBytes)
attr source packetDropReasonIsNoRouteFound(packetDropped)
attr title "packet drop: no route found, sum(packetBytes)"
scalar RailwayLoRaStar.nsRouter.ipv4.ip packetDropUndefined:count 0
attr interpolationmode none
attr recordingmode count
attr source packetDropReasonIsUndefined(packetDropped)
attr title "packet drop: undefined, count"
scalar RailwayLoRaStar.nsRouter.ipv4.ip packetDropUndefined:sum(packetBytes) 0
attr interpolationmode none
attr recordingmode sum(packetBytes)
attr source packetDropReasonIsUndefined(packetDropped)
attr title "packet drop: undefined, sum(packetBytes)"
par RailwayLoRaStar.nsRouter.ipv4.arp typename "\"inet.networklayer.arp.ipv4.Arp\""
par RailwayLoRaStar.nsRouter.ipv4.arp interfaceTableModule "\"RailwayLoRaStar.nsRouter.interfaceTable\""
par RailwayLoRaStar.nsRouter.ipv4.arp routingTableModule "\"RailwayLoRaStar.nsRouter.ipv4.routingTable\""
par RailwayLoRaStar.nsRouter.ipv4.arp retryTimeout 1s
attr unit s
par RailwayLoRaStar.nsRouter.ipv4.arp retryCount 3
par RailwayLoRaStar.nsRouter.ipv4.arp cacheTimeout 120s
attr unit s
par RailwayLoRaStar.nsRouter.ipv4.arp proxyArpInterfaces "\"*\""
scalar RailwayLoRaStar.nsRouter.ipv4.arp arpResolutionFailed:count 0
attr recordingmode count
attr title "ARP failed resolutions, count"
scalar RailwayLoRaStar.nsRouter.ipv4.arp arpResolutionCompleted:count 1
attr recordingmode count
attr title "ARP completed resolutions, count"
scalar RailwayLoRaStar.nsRouter.ipv4.arp arpResolutionInitiated:count 1
attr recordingmode count
attr title "ARP initiated resolutions, count"
scalar RailwayLoRaStar.nsRouter.ipv4.arp arpReplySent:count 0
attr recordingmode count
attr source arpReplySent
attr title "ARP replies sent, count"
scalar RailwayLoRaStar.nsRouter.ipv4.arp arpReplySent:sum(packetBytes) 0
attr recordingmode sum(packetBytes)
attr source arpReplySent
attr title "ARP replies sent, sum(packetBytes)"
scalar RailwayLoRaStar.nsRouter.ipv4.arp arpRequestSent:count 1
attr recordingmode count
attr source arpRequestSent
attr title "ARP request sent, count"
scalar RailwayLoRaStar.nsRouter.ipv4.arp arpRequestSent:sum(packetBytes) 28
attr recordingmode sum(packetBytes)
attr source arpRequestSent
attr title "ARP request sent, sum(packetBytes)"
par RailwayLoRaStar.nsRouter.ipv4.lp typename "\"inet.common.MessageDispatcher\""
par RailwayLoRaStar.nsRouter.ipv4.lp displayStringTextFormat "\"processed %p pk (%l)\""
par RailwayLoRaStar.nsRouter.ipv4.lp forwardServiceRegistration true
par RailwayLoRaStar.nsRouter.ipv4.lp forwardProtocolRegistration true
par RailwayLoRaStar.nsRouter.ipv4 typename "\"inet.networklayer.ipv4.Ipv4NetworkLayer\""
par RailwayLoRaStar.nsRouter.ipv4 forwarding true
par RailwayLoRaStar.nsRouter.ipv4 multicastForwarding false
par RailwayLoRaStar.nsRouter.ipv4 interfaceTableModule "\"RailwayLoRaStar.nsRouter.interfaceTable\""
par RailwayLoRaStar.nsRouter.ipv4 displayStringTextFormat "\"%i\""
par RailwayLoRaStar.nsRouter.nl typename "\"inet.common.MessageDispatcher\""
par RailwayLoRaStar.nsRouter.nl displayStringTextFormat "\"processed %p pk (%l)\""
par RailwayLoRaStar.nsRouter.nl forwardServiceRegistration true
par RailwayLoRaStar.nsRouter.nl forwardProtocolRegistration true
par RailwayLoRaStar.nsRouter.tn typename "\"inet.common.MessageDispatcher\""
par RailwayLoRaStar.nsRouter.tn displayStringTextFormat "\"processed %p pk (%l)\""
par RailwayLoRaStar.nsRouter.tn forwardServiceRegistration true
par RailwayLoRaStar.nsRouter.tn forwardProtocolRegistration true
par RailwayLoRaStar.nsRouter.at typename "\"inet.common.MessageDispatcher\""
par RailwayLoRaStar.nsRouter.at displayStringTextFormat "\"processed %p pk (%l)\""
par RailwayLoRaStar.nsRouter.at forwardServiceRegistration true
par RailwayLoRaStar.nsRouter.at forwardProtocolRegistration true
par RailwayLoRaStar.nsRouter typename "\"inet.node.inet.Router\""
par RailwayLoRaStar.nsRouter hasStatus false
par RailwayLoRaStar.nsRouter osgModel "\"\""
par RailwayLoRaStar.nsRouter osgModelColor "\"\""
par RailwayLoRaStar.nsRouter canvasImage "\"\""
par RailwayLoRaStar.nsRouter canvasImageColor "\"\""
par RailwayLoRaStar.nsRouter recordPcap false
par RailwayLoRaStar.nsRouter numPcapRecorders 0
par RailwayLoRaStar.nsRouter numLoInterfaces 1
par RailwayLoRaStar.nsRouter numWlanInterfaces 0
par RailwayLoRaStar.nsRouter numEthInterfaces 0
par RailwayLoRaStar.nsRouter numPppInterfaces 0
par RailwayLoRaStar.nsRouter numTunInterfaces 0
par RailwayLoRaStar.nsRouter numVirtInterfaces 0
par RailwayLoRaStar.nsRouter fcsMode "\"declared\""
attr enum declared,computed
par RailwayLoRaStar.nsRouter hasIpv4 true
par RailwayLoRaStar.nsRouter hasIpv6 false
par RailwayLoRaStar.nsRouter hasGn false
par RailwayLoRaStar.nsRouter forwarding true
par RailwayLoRaStar.nsRouter multicastForwarding false
par RailwayLoRaStar.nsRouter hasUdp false
par RailwayLoRaStar.nsRouter hasTcp false
par RailwayLoRaStar.nsRouter hasSctp false
par RailwayLoRaStar.nsRouter numApps 0
par RailwayLoRaStar.nsRouter hasEigrp false
par RailwayLoRaStar.nsRouter hasOspf false
par RailwayLoRaStar.nsRouter hasRip false
par RailwayLoRaStar.nsRouter hasBgp false
par RailwayLoRaStar.nsRouter hasPim false
par RailwayLoRaStar.nsRouter hasDhcp false
par RailwayLoRaStar typename "\"flora.simulations.RailwayLoRaStar\""
par RailwayLoRaStar numberOfNodes 20
par RailwayLoRaStar numberOfGateways 2
par RailwayLoRaStar stationDistance 2000

